3
energy 56.13537, nre 0.0, age 10
O   -1.674872668           0.0                  -0.984966492        
H   -1.674872668           0.759337             -0.388923492        
H   -1.674872668          -0.759337             -0.388923492        

3
energy 0.0, nre 1.006, age 0
O   -1.674872668           0.0                  -0.984966492        
H   -1.674872668           0.759337             -0.388923492        
H   -1.674872668          -0.759337             -0.388923492        

