11
energy 0.0, nre 0.0, age 0
O   -2.695856794348236    -4.341645249039887     5.41316913456502   
H   -1.9837196950249685   -3.8390793399508674    5.828076589555852  
H   -2.4014423139816765   -5.258201999569201     5.484609838842288  
O   -4.117089808677215    -1.8649508549227125   -0.3639025567508565 
H   -5.068186756946127    -1.799634775249547    -0.21221754711677487
H   -3.969112182025529    -1.3050840351824982   -1.1362442580609131 
O    4.276339930236697    -3.7898599994292637    1.1679752818480533 
O    2.520087374224643     0.4869517621603896    2.8605925474149583 
H    1.7542384755018199    0.3543353333496366    3.4330855906500015 
H    2.4355443193999364   -0.211093433437342     2.199196059518453  
O    2.3223815121797013   -3.9680315349916997    0.8758493620885108 

11
energy 0.0, nre 0.0, age 0
O    1.8093605008691047   -3.6387917842381485    2.840069492053645  
O   -0.14452134891472557  -4.839982409952508     0.3388899280798252 
H   -0.6475592481333302   -4.885637924195033     1.161524952490398  
H    0.6598672827312524   -4.367963647678395     0.5879223652399764 
O    0.7959166653843583    3.038668590137469     0.4188571290999601 
O    2.1269671208950873    2.8782262597509494   -1.0973992306956148 
H    3.087332759291845     2.8378605135423722   -1.1864407071984924 
H    1.9598769081002967    3.7897694193770732   -0.8271588444743578 
O    1.2037218656433415   -1.2866444659149325   -6.312636032726935  
H    2.131821227757265    -1.3595338386982028   -6.057334934419487  
H    1.0544350434595697   -0.334365973836031    -6.364972020958786  

11
energy 0.0, nre 0.0, age 0
O    1.211826338964892    -1.6673997495887272    2.048760768344424  
O    4.914138416277297     2.545525532568657    -2.8775547347162522 
H    4.712267560130557     1.6939937302462966   -2.470121691762917  
H    4.048286024925943     2.9576977882498188   -2.988341040078624  
O    3.680636488186579    -3.9340674660657413    2.9997700144055344 
O    2.39931654622046     -4.070717236666708     0.08387120611689924
H    1.7124312944292424   -4.142514035734913    -0.5905869526544771 
H    2.440127016114746    -4.956776017860904     0.46478363599240535
O    4.035490507698716     3.4454571896776587    2.1030735059157073 
H    4.165196183795716     4.190445296572276     1.5030492600790955 
H    4.225594854603349     2.673863030774452     1.5550199239983762 

11
energy 0.0, nre 0.0, age 0
O   -0.31744690258372454   3.214577705638519    -4.274314296484339  
H    0.2316087537855287    2.7613400075776875   -4.926214145144735  
H   -0.6165579469665858    4.0068944414864065   -4.737592518119613  
O    2.0726834955338393    1.5649746784546403   -4.276812007958583  
H    2.633096485108693     1.5406385510099647   -3.491188070291984  
H    2.397179143562289     2.3311280889760697   -4.766272387739191  
O   -0.12421911849503608  -3.975948022214774    -2.826350108992617  
O   -3.34197907646683      1.077341273654131    -0.771279614119111  
O   -0.5882790938322042    2.407351684109954    -4.330548018792251  
H   -1.0486753352898832    3.224408163424555    -4.101825593394848  
H   -1.2153571444443632    1.7149805381389451   -4.087124001724817  

11
energy 0.0, nre 0.0, age 0
O   -2.1049590274307275    1.7031052134697788    1.8907727563916603 
H   -1.322279767490407     1.719269281553602     1.3259614282649541 
H   -1.7747118855934907    1.9976656840962623    2.7486951840450238 
O   -2.510714405833759     1.5952126552479742   -2.156151072511201  
H   -2.9310421094679415    2.401802508786522    -2.479566234716498  
H   -1.9333730547476773    1.3302331261243223   -2.8830092092129274 
O   -4.477360035762567    -1.333747616681542     1.0995099435595979 
O    2.0875580465778327    0.8687875697955807   -3.057031365694916  
H    2.764073003315286     0.32921107871666044  -2.629194175862753  
H    2.291607222348546     1.7660858653074094   -2.7653472211877803 
O    2.009388978493889     3.98550118507454      4.184393151023297  

11
energy 0.0, nre 0.0, age 0
O   -2.695856794348236    -4.341645249039887     5.41316913456502   
H   -1.9837196950249685   -3.8390793399508674    5.828076589555852  
H   -2.4014423139816765   -5.258201999569201     5.484609838842288  
O    4.276339930236698    -3.7898599994292637    1.1679752818480533 
H    3.3252429819677856   -3.724543919756098     1.319660291482135  
H    4.424317556888384    -3.2299931796890493    0.3956335805379967 
O   -4.117089808677216    -1.8649508549227125   -0.3639025567508565 
O    2.520087374224643     0.4869517621603896    2.8605925474149583 
H    1.7542384755018199    0.3543353333496366    3.4330855906500015 
H    2.4355443193999364   -0.211093433437342     2.199196059518453  
O    2.3223815121797013   -3.9680315349916997    0.8758493620885108 

11
energy 0.0, nre 0.0, age 0
O    1.9598769081002967    3.7897694193770732   -0.8271588444743578 
O   -0.14452134891472557  -4.839982409952508     0.3388899280798252 
H   -0.6475592481333302   -4.885637924195033     1.161524952490398  
H    0.6598672827312524   -4.367963647678395     0.5879223652399764 
O    0.7959166653843583    3.038668590137469     0.4188571290999601 
O    1.9764507136638951   -4.550334943864272     2.569829105832388  
H    2.936816352060653    -4.5907006900728495    2.4807876293295106 
H    1.8093605008691047   -3.6387917842381485    2.840069492053645  
O    1.2037218656433415   -1.2866444659149325   -6.312636032726935  
H    2.131821227757265    -1.3595338386982028   -6.057334934419487  
H    1.0544350434595697   -0.334365973836031    -6.364972020958786  

11
energy 0.0, nre 0.0, age 0
O    1.211826338964892    -1.6673997495887272    2.048760768344424  
O    4.914138416277297     2.545525532568657    -2.8775547347162522 
H    4.712267560130557     1.6939937302462966   -2.470121691762917  
H    4.048286024925943     2.9576977882498188   -2.988341040078624  
O    3.680636488186579    -3.9340674660657413    2.9997700144055344 
O    2.39931654622046     -4.070717236666708     0.08387120611689924
H    1.7124312944292424   -4.142514035734913    -0.5905869526544771 
H    2.440127016114746    -4.956776017860904     0.46478363599240535
O    4.232483821166204     1.832584775058112     3.65277061689336   
H    4.362189497263204     2.577572881952729     3.052746371056748  
H    4.4225881680708365    1.0609906161549054    3.1047170349760287 

11
energy 0.0, nre 0.0, age 0
O   -0.31744690258372454   3.214577705638519    -4.274314296484339  
H    0.2316087537855287    2.7613400075776875   -4.926214145144735  
H   -0.6165579469665858    4.0068944414864065   -4.737592518119613  
O    2.0726834955338393    1.5649746784546403   -4.276812007958583  
H    2.633096485108693     1.5406385510099647   -3.491188070291984  
H    2.397179143562289     2.3311280889760697   -4.766272387739191  
O   -0.12421911849503608  -3.975948022214774    -2.826350108992617  
O   -3.34197907646683      1.077341273654131    -0.771279614119111  
O   -4.697129110323381     0.8104112478077024   -5.592581438576858  
H   -5.15752535178106      1.627467727122304    -5.3638590131794555 
H   -5.32420716093554      0.11804010183669367  -5.349157421509425  

