11
energy 0.0, nre 0.0, age 0
O    0.2578877184472752   -1.082871916247182     1.313634387246231  
O   -2.5435586696177337   -2.5010270617464365   -5.180747818298025  
H   -2.4720182508116944   -1.785947846726974    -5.82526595003848   
H   -2.8718088894189098   -2.061679176378335    -4.3863391286167905 
O    2.6144002799642685   -2.9956618761115417   -4.198733512813882  
O    3.03136905386425     -3.1489270368653304    0.053961440955931916
H    3.8796156381009137   -3.472755281738486     0.3817920947563411 
H    2.6358075616188428   -2.7219642748035406    0.8240873028013544 
O   -1.740435234777462    -1.3949235500666948   -3.170513666047211  
H   -1.860349888230017    -1.9624178743973653   -2.398872165635375  
H   -2.639561962090642    -1.250268760160689    -3.4906793378584475 

11
energy 0.0, nre 0.0, age 0
O    1.4517927407626432   -4.550788211669897     5.112312456964431  
H    0.6660809450844889   -5.110704190156946     5.080516095771657  
H    1.0964078625226001   -3.6543225624779057    5.0685990087466335 
O   -3.434617156810539     0.8574899994281129    3.145279370201381  
O    4.394944849192644    -0.918259781291684     2.395761859364937  
H    3.9244900429323586   -1.6272725183365506    2.851649072821011  
H    3.6971890088131816   -0.44613579073946497   1.92449159488881   
O   -2.7669399808761708   -1.3744195048391719   -0.8727940120638698 
O    4.504386141200012    -3.1813138246347825    2.373881453086992  
H    4.297087643467412    -2.255841473944992     2.1939142383935355 
H    3.8450088122404398   -3.6674556534229583    1.8632469480105842 

11
energy 0.0, nre 0.0, age 0
O    1.324968178537901    -4.825903574223558    -3.6689327665147586 
O   -0.0042528138781867675   2.5028073209390778   -4.649760225398076  
H   -0.09743181935384371   2.1476421391559297   -3.7569918881428217 
H    0.8929894167533168    2.252888797021581    -4.90344713556946   
O   -1.311743832592268    -2.8866295176222123   -0.5278076831532061 
O   -0.8384397311053022    2.3324095401000817   -5.458399386894559  
H   -1.0415733850379212    2.913715580887336    -6.201823857168595  
H   -1.6882281610003202    1.9269288987128117   -5.245549648123923  
O   -5.125094604665865     0.9503207048082778   -3.1973477924479528 
H   -4.8133622661454885    1.8329502729406038   -2.9614496534193426 
H   -4.3649272325169095    0.3830863043598305   -3.0177631642470857 

11
energy 0.0, nre 0.0, age 0
O    2.3727720741458125    1.293629907553382     3.333869968390683  
O   -2.180275246913423     3.834942407635836    -3.376765572449009  
H   -2.7322767037707294    3.5465543927827845   -2.639211044339712  
H   -2.719692498185392     4.5016986032000625   -3.8198515033076994 
O   -0.5278668783563225    3.6505685152713356    1.1711195318477454 
H   -0.5926393128647657    2.9889243756404342    0.47119703496831655
H   -1.374730592452491     4.112031233135035     1.1294788403658507 
O    0.5350703412218039   -4.913615048342278     3.191024386363358  
O    5.717462005750823    -2.1984348983094213   -0.5138480523047122 
H    5.399368209605939    -2.037124894357145    -1.4108738918974482 
H    5.108794173602023    -2.8646921498376487   -0.17108766615816268

11
energy 0.0, nre 0.0, age 0
O   -2.38349621067934      0.6756354254685633   -0.041298642319562484
H   -2.447913753587855     1.6360879535489659   -0.11369518151580271
H   -3.296155403639781     0.3946313023749861    0.09994518135852148
O   -3.6491586966363316   -0.9016675085336643   -3.258630211467123  
H   -3.0362442834965586   -0.15598884082350217  -3.2460133931072703 
H   -3.0854551085009625   -1.6583704905838619   -3.4623427518215375 
O   -2.0088019958528847    2.7713234480377786    2.014048542309328  
O    2.792795844009053     3.5941889081683325   -2.413285025647199  
O    2.1730312228388993    5.3771393548995405   -0.19594545569609245
H    2.719504445384413     4.586188832447869    -0.10862864464490762
H    2.419558609881848     5.911744975033507     0.5690911550467886 

11
energy 0.0, nre 0.0, age 0
O    0.2578877184472752   -1.082871916247182     1.313634387246231  
O    2.9426504997654446   -3.4350097614796433   -4.993142202495116  
H    3.014190918571484    -2.719930546460181    -5.637660334235571  
H    2.6144002799642685   -2.9956618761115417   -4.198733512813882  
O   -2.8718088894189098   -2.061679176378335    -4.3863391286167905 
O    3.03136905386425     -3.1489270368653304    0.053961440955931916
H    3.8796156381009137   -3.472755281738486     0.3817920947563411 
H    2.6358075616188428   -2.7219642748035406    0.8240873028013544 
O   -3.4639965226605915    0.648648010933516    -2.5463344378440844 
H   -3.5839111761131464    0.0811536866028455   -1.7746929374322487 
H   -4.363123249973771     0.7933028008395218   -2.866500109655321  

11
energy 0.0, nre 0.0, age 0
O    1.324968178537901    -4.825903574223558    -3.6689327665147586 
O    0.16210473754301669   1.4184465085661526   -2.419108812957826  
H    0.06892573206735975   1.0632813267830046   -1.526340475702572  
H    1.0593469681745202    1.168527984648656    -2.6727957231292105 
O   -1.311743832592268    -2.8866295176222123   -0.5278076831532061 
O   -0.8384397311053022    2.3324095401000817   -5.458399386894559  
H   -1.0415733850379212    2.913715580887336    -6.201823857168595  
H   -1.6882281610003202    1.9269288987128117   -5.245549648123923  
O   -5.125094604665865     0.9503207048082778   -3.1973477924479528 
H   -4.8133622661454885    1.8329502729406038   -2.9614496534193426 
H   -4.3649272325169095    0.3830863043598305   -3.0177631642470857 

11
energy 0.0, nre 0.0, age 0
O    2.3727720741458125    1.293629907553382     3.333869968390683  
O   -2.4924154441364346   -3.5668148766083556   -2.436945099465615  
H   -3.044416900993741    -3.855202891461407    -1.6993905713563182 
H   -3.0318326954084034   -2.900058681044129    -2.880031030324306  
O   -0.5278668783563225    3.6505685152713356    1.1711195318477454 
H   -0.5926393128647657    2.9889243756404342    0.47119703496831655
H   -1.374730592452491     4.112031233135035     1.1294788403658507 
O    0.5350703412218039   -4.913615048342278     3.191024386363358  
O    5.717462005750823    -2.1984348983094213   -0.5138480523047122 
H    5.399368209605939    -2.037124894357145    -1.4108738918974482 
H    5.108794173602023    -2.8646921498376487   -0.17108766615816268

11
energy 0.0, nre 0.0, age 0
O   -2.38349621067934      0.6756354254685633   -0.041298642319562484
H   -2.447913753587855     1.6360879535489659   -0.11369518151580271
H   -3.296155403639781     0.3946313023749861    0.09994518135852148
O   -2.6217164089926577    2.0256447803276165    2.0014317239494748 
H   -2.0088019958528847    2.7713234480377786    2.0140485423093275 
H   -2.0580128208572885    1.268941798277419     1.7977191835950603 
O   -3.0362442834965586   -0.15598884082350217  -3.24601339310727   
O    2.792795844009053     3.5941889081683325   -2.413285025647199  
O    2.1730312228388993    5.3771393548995405   -0.19594545569609245
H    2.719504445384413     4.586188832447869    -0.10862864464490762
H    2.419558609881848     5.911744975033507     0.5690911550467886 

