14
energy 0.0, nre 0.0, age 0
O    2.5348590503432398   -0.9376464884749556    0.1504867024848125 
H    2.424325913024547    -1.8373403861653217   -0.18146698921209325
H    2.271308069698552    -1.0011052503934965    1.0769713507952903 
O   -0.705178246924247    -2.9626235271931103   -0.1291873591614474 
H   -0.5190111074760224   -2.1272657035297753    0.31733144229278154
H   -1.6595426843230534   -3.0681180019093706   -0.02959130577176672
O    1.709087379889663    -2.3526007241063205   -3.275590686257755  
O    0.4130062693911976   -1.3732731384002888   -0.6964266726167838 
H    1.3034397960092519   -1.2668101185289486   -0.3391400964731936 
H    0.43921467462842795  -0.8826866254105232   -1.5273887236067574 
O    0.2605820598794488   -3.915435903759329    -1.7319023802189624 
H   -0.39413736185255677  -3.545130588201747    -1.1268599110527824 
H    0.7032131154987118   -3.137989718057369    -2.0945525068656377 
O    2.7778635264253193   -1.8778360222686619    0.3145540698378646 

14
energy 0.0, nre 0.0, age 0
O    2.5348590503432398   -0.9376464884749556    0.1504867024848125 
H    2.424325913024547    -1.8373403861653217   -0.18146698921209325
H    2.271308069698552    -1.0011052503934965    1.0769713507952903 
O   -0.705178246924247    -2.9626235271931103   -0.1291873591614474 
H   -1.2479707855811144    3.205656126362932     3.407335504165716  
H   -1.6595426843230534   -3.0681180019093706   -0.02959130577176672
O    1.709087379889663    -2.3526007241063205   -3.275590686257755  
O    0.4130062693911976   -1.3732731384002888   -0.6964266726167838 
H    1.3034397960092519   -1.2668101185289486   -0.3391400964731936 
H    0.43921467462842795  -0.8826866254105232   -1.5273887236067574 
O    0.2605820598794488   -3.915435903759329    -1.7319023802189624 
H   -0.39413736185255677  -3.545130588201747    -1.1268599110527824 
H    0.7032131154987118   -3.137989718057369    -2.0945525068656377 
O    2.7778635264253193   -1.8778360222686619    0.3145540698378646 

14
energy 0.0, nre 0.0, age 0
O    3.3582322983473083   -3.4661813926697254   -1.2704400968815426 
H    2.7611978958888046   -2.9381383060288297   -0.7258481777808521 
H    3.7210973667577627   -2.8282811554250156   -1.8975542546459956 
O    3.9202806442984652    0.7384962239791344   -3.266829475744518  
O    1.594079680092465    -1.839167933401926    -0.9651420350714641 
H    1.920782884213287    -2.5863915276374208   -0.4486327379112123 
H    1.9965630420198588   -1.0722917758290125   -0.5387994032178969 
O    3.649954141916929     0.16827886007268145  -0.01640048676555317
O    2.9379038802659005    0.20648346741252843  -0.15779513972637854
H    2.2186272347317217    0.6309891377290935    0.32624616065632955
H    2.5440975190542954   -0.0071679310009868935  -1.0128562879743999 
O    1.073765311875488    -0.16895806650431355   0.11622407534466828
H    1.8129404048188638    0.003593297308776     0.7126351301016998 
H    1.4990965418220028   -0.33168033399702135  -0.7349367472454087 

14
energy 0.0, nre 0.0, age 0
O    3.3582322983473083   -3.4661813926697254   -1.2704400968815426 
H    2.7611978958888046   -2.9381383060288297   -0.7258481777808521 
H   -1.4625514866678362    2.1781386784137133    2.1505604925961057 
O    3.9202806442984652    0.7384962239791344   -3.266829475744518  
O    1.594079680092465    -1.839167933401926    -0.9651420350714641 
H    1.920782884213287    -2.5863915276374208   -0.4486327379112123 
H    1.9965630420198588   -1.0722917758290125   -0.5387994032178969 
O    3.649954141916929     0.16827886007268145  -0.01640048676555317
O    2.9379038802659005    0.20648346741252843  -0.15779513972637854
H    2.2186272347317217    0.6309891377290935    0.32624616065632955
H    2.5440975190542954   -0.0071679310009868935  -1.0128562879743999 
O    1.073765311875488    -0.16895806650431355   0.11622407534466828
H    1.8129404048188638    0.003593297308776     0.7126351301016998 
H    1.4990965418220028   -0.33168033399702135  -0.7349367472454087 

14
energy 0.0, nre 0.0, age 0
O    0.7669578864682443    3.1483901429149155    0.10321797998631999
H    0.6772575770272136    2.2685792562370897   -0.2837530726614995 
H   -0.0571153185667963    3.2693323026261973    0.5912100743542994 
O   -2.20774838715702      2.0468520380912336   -2.4322805154223355 
O    2.0649126536459628    1.9201832209017096   -0.46134562025377884
H    2.4013567370184647    1.0729537513915943   -0.7789421286968743 
H    1.6743977682083693    1.7053526744390721    0.3949288088729046 
O    1.487844417761535     2.074186322497061    -3.7345731151945034 
H    0.8083101691766449    1.6629309983242253   -3.1859728957653957 
H    2.315196206983838     1.785873983384974    -3.329326339261158  
O   -0.5051128637988196    2.9964392355966885   -1.0821319851646072 
O    0.8816030292775794   -0.4652617764446445   -0.044010106047120745
H    0.3461825877294603   -1.077773496094113    -0.5636390904989774 
H    0.22991137335974837   0.039911749617453474   0.457943708154009  

14
energy 0.0, nre 0.0, age 0
O    0.7669578864682443    3.1483901429149155    0.10321797998631999
H    0.6772575770272136    2.2685792562370897   -0.2837530726614995 
H   -0.0571153185667963    3.2693323026261973    0.5912100743542994 
O   -2.20774838715702      2.0468520380912336   -2.4322805154223355 
O    0.873390625851405    -3.4954618896661804   -1.7463680360728153 
H    2.4013567370184647    1.0729537513915943   -0.7789421286968743 
H    1.6743977682083693    1.7053526744390721    0.3949288088729046 
O    1.487844417761535     2.074186322497061    -3.7345731151945034 
H    0.8083101691766449    1.6629309983242253   -3.1859728957653957 
H    2.315196206983838     1.785873983384974    -3.329326339261158  
O   -0.5051128637988196    2.9964392355966885   -1.0821319851646072 
O    0.8816030292775794   -0.4652617764446445   -0.044010106047120745
H    0.3461825877294603   -1.077773496094113    -0.5636390904989774 
H    0.22991137335974837   0.039911749617453474   0.457943708154009  

14
energy 0.0, nre 0.0, age 0
O   -3.02511053010897      4.9442699183170635   -0.07374478027297593
H   -3.5854618125259       4.682386366600057    -0.8148813284554202 
H   -2.3098472345535934    4.296129667085358    -0.0868813773424092 
O    0.33530979770443636   3.9348803972196915    0.5016705782817672 
O   -2.6596657433737936    2.548610929924377     0.6327985339157669 
H   -3.5899495849172753    2.4674585075689817    0.38816371234092695
H   -2.4082918992068296    3.4167310021513706    0.29362502657281   
O   -2.3675200453383685    4.959695055778415     1.0913998449793691 
H   -2.041735066767573     4.085488322734593     0.8434347807939606 
H   -1.7234575344634762    5.268725572497615     1.7406637044693254 
O   -2.550577900015175     4.567698180859072     2.3507638261299264 
H   -1.9808675124937412    3.974341158446242     2.8559543404129624 
H   -3.099589082874548     4.987423479984618     3.0247648141019936 
O   -2.6482813656143245    3.0553851429216703   -1.4975183091027189 

14
energy 0.0, nre 0.0, age 0
O   -3.02511053010897      4.9442699183170635   -0.07374478027297593
H   -3.5854618125259       4.682386366600057    -0.8148813284554202 
H   -2.3098472345535934    4.296129667085358    -0.0868813773424092 
O    0.33530979770443636   3.9348803972196915    0.5016705782817672 
O   -2.6596657433737936    2.548610929924377     0.6327985339157669 
H    0.008823293237026242  -1.2714411519364788   -1.8300541249514612 
H   -2.4082918992068296    3.4167310021513706    0.29362502657281   
O   -2.3675200453383685    4.959695055778415     1.0913998449793691 
H   -2.041735066767573     4.085488322734593     0.8434347807939606 
H   -1.7234575344634762    5.268725572497615     1.7406637044693254 
O   -2.550577900015175     4.567698180859072     2.3507638261299264 
H   -1.9808675124937412    3.974341158446242     2.8559543404129624 
H   -3.099589082874548     4.987423479984618     3.0247648141019936 
O   -2.6482813656143245    3.0553851429216703   -1.4975183091027189 

14
energy 0.0, nre 0.0, age 0
O   -2.512263451444119    -1.8793360872535838   -1.2007191263809436 
H   -2.7937961762374632   -2.571685168607458    -0.5897755841146541 
H   -3.3399861834498616   -1.5552783068965421   -1.5771783822493806 
O   -0.32942162891573634   0.7777074190686015    0.20757827965108255
O   -2.4043277134566523   -0.15503358856190808   0.545003812696625  
O   -2.057710529655049    -3.0999173065138805    2.340450111843261  
H   -2.6368748922679948   -2.329930976884179     2.280871334745034  
H   -1.1828404969327888   -2.718163211822098     2.484415991302976  
O   -2.508707668573412    -1.342730641747454     0.022404033268546897
H   -2.0912561327772243   -1.8362929762194933    0.7393352535888197 
H   -1.9389576277272282   -0.5711741922464221   -0.08689131707689923
O   -2.1588494139974976   -3.8165690168923794    0.31103014636618165
H   -2.8745402072704875   -3.295310680888524     0.6956551234396557 
H   -1.459168078701499    -3.770031497140061     0.9744607951243698 

14
energy 0.0, nre 0.0, age 0
O   -2.512263451444119    -1.8793360872535838   -1.2007191263809436 
H   -2.7937961762374632   -2.571685168607458    -0.5897755841146541 
H   -3.3399861834498616   -1.5552783068965421   -1.5771783822493806 
O   -0.32942162891573634   0.7777074190686015    0.20757827965108255
O   -2.4043277134566523   -0.15503358856190808   0.545003812696625  
O   -2.057710529655049    -3.0999173065138805    2.340450111843261  
H   -2.6368748922679948   -2.329930976884179     2.280871334745034  
H   -1.1828404969327888   -2.718163211822098     2.484415991302976  
O   -2.508707668573412    -1.342730641747454     0.022404033268546897
H   -1.2603885800229184    2.170239081021683    -3.1140309009102047 
H   -1.9389576277272282   -0.5711741922464221   -0.08689131707689923
O   -2.1588494139974976   -3.8165690168923794    0.31103014636618165
H   -2.8745402072704875   -3.295310680888524     0.6956551234396557 
H   -1.459168078701499    -3.770031497140061     0.9744607951243698 

14
energy 0.0, nre 0.0, age 0
O   -2.1976277853775215   -3.569535046260608     1.0181342130025972 
H   -2.6517798538117536   -3.4987548821365264    0.16925494919561945
H   -2.9132938540489905   -3.7136676488529883    1.6497257015775078 
O   -1.1299047956538055   -1.257941840862388     0.29038582111622   
H   -1.8474286255000105   -1.9037022515595492    0.28678262849467995
H   -1.5539394742286983   -0.4457440231103718    0.5943417942813318 
O    0.4408593753491754   -4.216047222831951    -0.8806395858839773 
H    0.3913918307463473   -3.2522423296836145   -0.9028438060299515 
H   -0.4554611360216655   -4.4968209430138835   -1.1034300622717983 
O   -1.8252887170175653   -1.9565959460974267    1.5144863647854543 
H   -1.4626184929320583   -1.0972896491523454    1.26564317317616   
H   -1.0938998135804803   -2.5674756158455923    1.360355775882828  
O   -2.7795622596385767   -0.7136386624345157   -1.578030881764386  
O   -1.4333414922960017   -1.4927230791552866    2.2546231201639024 

14
energy 0.0, nre 0.0, age 0
O   -2.1976277853775215   -3.569535046260608     1.0181342130025972 
H   -1.9727808630309749    3.845621587363932     2.768718821801536  
H   -2.9132938540489905   -3.7136676488529883    1.6497257015775078 
O   -1.1299047956538055   -1.257941840862388     0.29038582111622   
H   -1.8474286255000105   -1.9037022515595492    0.28678262849467995
H   -1.5539394742286983   -0.4457440231103718    0.5943417942813318 
O    0.4408593753491754   -4.216047222831951    -0.8806395858839773 
H    0.3913918307463473   -3.2522423296836145   -0.9028438060299515 
H   -0.4554611360216655   -4.4968209430138835   -1.1034300622717983 
O   -1.8252887170175653   -1.9565959460974267    1.5144863647854543 
H   -1.4626184929320583   -1.0972896491523454    1.26564317317616   
H   -1.0938998135804803   -2.5674756158455923    1.360355775882828  
O   -2.7795622596385767   -0.7136386624345157   -1.578030881764386  
O   -1.4333414922960017   -1.4927230791552866    2.2546231201639024 

14
energy 0.0, nre 0.0, age 0
O   -1.5556599157893047   -0.6573640570436521   -2.186399141798823  
H   -1.8607139072299328   -0.1967382897215919   -1.3948020838184991 
H   -2.2011858081592948   -1.365636489149817    -2.3026162731364455 
O   -2.620301573057586    -2.4135498171824947   -1.0823051931292627 
H   -1.7548490990912757   -1.9864670428486273   -1.1035715184084482 
H   -3.238756110256867    -1.6752576207917784   -1.016741822378557  
O   -1.1106026366334145   -1.3550525588287883   -0.20027896756376773
O   -2.950688432293386    -2.513191105486583    -0.11996418804727504
H   -2.01994579972013     -2.7622425326281124   -0.06036992685231346
H   -2.927123469952522    -1.5497518606060194   -0.17554702165481406
O   -2.045736661213951    -3.476002758815393     0.2881547294680997 
O    0.9577507844479156   -0.8885155138757089    0.43268335212366016
H    0.17128746559881391  -0.4351973327712886    0.1042963666887371 
H    0.7177646395440422   -1.8226478013861938    0.3918978509914395 

14
energy 0.0, nre 0.0, age 0
O   -1.5556599157893047   -0.6573640570436521   -2.186399141798823  
H   -1.8607139072299328   -0.1967382897215919   -1.3948020838184991 
H   -2.2011858081592948   -1.365636489149817    -2.3026162731364455 
O   -2.620301573057586    -2.4135498171824947   -1.0823051931292627 
H   -1.7548490990912757   -1.9864670428486273   -1.1035715184084482 
H   -2.4589442521916194    2.3376782888495855   -1.453416365024549  
O   -1.1106026366334145   -1.3550525588287883   -0.20027896756376773
O   -2.950688432293386    -2.513191105486583    -0.11996418804727504
H   -2.01994579972013     -2.7622425326281124   -0.06036992685231346
H   -2.927123469952522    -1.5497518606060194   -0.17554702165481406
O   -2.045736661213951    -3.476002758815393     0.2881547294680997 
O    0.9577507844479156   -0.8885155138757089    0.43268335212366016
H    0.17128746559881391  -0.4351973327712886    0.1042963666887371 
H    0.7177646395440422   -1.8226478013861938    0.3918978509914395 

14
energy 0.0, nre 0.0, age 0
O   -1.4740872533601839   -2.877553532834969     2.7602731881818325 
H   -1.3686037632721528   -2.3517051771131463    1.9576420913998152 
H   -2.4147665985329714   -3.094063843353832     2.7705490055372186 
O   -0.7169852615173381   -1.7912506891590705    0.4961798593653164 
H   -0.38834207158612843  -2.4615904238658164    1.1081424654150072 
H   -1.6162099108259473   -2.081819426518205     0.2991398219025523 
O   -0.5717695894010628    1.243948508050381     1.4867540145093292 
O   -1.6005989997966097   -2.572445054532711    -0.6956838898455731 
O   -1.7925007517587088    0.1272397244136121    0.3277222645271499 
H   -2.2430210873323073    0.8746509576405161    0.7403574703674789 
H   -1.1451662903358786   -0.14447727187257486   0.9902838891339683 
O   -0.747796250517481    -1.5309370946026108    1.394597166384285  
H   -0.7665666200708925   -0.9047663939625425    0.6601464435275679 
H    0.06108861385278175  -2.0359991133756665    1.2446719490138003 

14
energy 0.0, nre 0.0, age 0
O   -1.4740872533601839   -2.877553532834969     2.7602731881818325 
H   -1.3686037632721528   -2.3517051771131463    1.9576420913998152 
H   -2.4147665985329714   -3.094063843353832     2.7705490055372186 
O   -0.7169852615173381   -1.7912506891590705    0.4961798593653164 
H   -0.38834207158612843  -2.4615904238658164    1.1081424654150072 
H   -1.6162099108259473   -2.081819426518205     0.2991398219025523 
O   -0.5717695894010628    1.243948508050381     1.4867540145093292 
O   -1.6005989997966097   -2.572445054532711    -0.6956838898455731 
O   -1.7925007517587088    0.1272397244136121    0.3277222645271499 
H   -0.051106530156208585  -0.05243474832234263  -1.4408687996185545 
H   -1.1451662903358786   -0.14447727187257486   0.9902838891339683 
O   -0.747796250517481    -1.5309370946026108    1.394597166384285  
H   -0.7665666200708925   -0.9047663939625425    0.6601464435275679 
H    0.06108861385278175  -2.0359991133756665    1.2446719490138003 

14
energy 0.0, nre 0.0, age 0
O    2.693295772100606     4.717821718182181     0.63211145281064   
H    3.131012581843771     4.069039617556146     0.06700463300261861
H    3.413330542673229     5.291014876146511     0.9234179413194088 
O    4.608172585400244     2.1640908675486417    0.9082318763009032 
H    3.9542573111197474    1.5918893856988818    0.4877081366028918 
H    4.074758850567754     2.7802060966927638    1.4256598899672872 
O    3.983467559338188     2.4490902825768748   -0.12319631117576435
H    3.8373693721102025    1.5119104313857799   -0.30266548298009954
H    3.1974799037761548    2.71311374976203      0.371146638098955  
O    3.080330951669679     1.6592937106692163   -0.8508171356861298 
H    2.3047954038654437    1.9135584964357313   -0.3353038281672136 
H    3.1052317279739117    0.6978070758431019   -0.7684561023742496 
O    1.4161709465220405    3.701580710895257    -1.281722201061279  
O    1.9158803295919018    2.708426171609755    -1.1596693718233295 

14
energy 0.0, nre 0.0, age 0
O    2.693295772100606     4.717821718182181     0.63211145281064   
H    3.131012581843771     4.069039617556146     0.06700463300261861
H    3.413330542673229     5.291014876146511     0.9234179413194088 
O    4.608172585400244     2.1640908675486417    0.9082318763009032 
H    3.9542573111197474    1.5918893856988818    0.4877081366028918 
H    4.074758850567754     2.7802060966927638    1.4256598899672872 
O    3.983467559338188     2.4490902825768748   -0.12319631117576435
H    3.8373693721102025    1.5119104313857799   -0.30266548298009954
H   -1.0212407445484857   -0.7475200774520641    0.532872993193739  
O    3.080330951669679     1.6592937106692163   -0.8508171356861298 
H    2.3047954038654437    1.9135584964357313   -0.3353038281672136 
H    3.1052317279739117    0.6978070758431019   -0.7684561023742496 
O    1.4161709465220405    3.701580710895257    -1.281722201061279  
O    1.9158803295919018    2.708426171609755    -1.1596693718233295 

14
energy 0.0, nre 0.0, age 0
O   -1.9535838312297946   -3.3375583988319972    2.0574688899419353 
H   -2.896747340262161    -3.1477490999712163    1.978254227702347  
H   -1.5813479960973655   -2.513206179724553     2.394728195690339  
O   -0.8762232085584207   -1.886838423772276     0.49908144324479853
O   -0.9856076099557183   -0.6444800182088339    0.7544969640454138 
H   -1.4952497566387593   -0.3975070155275062   -0.027250537190676383
H   -1.6377299755555774   -1.062205603467034     1.3307796144203303 
O   -2.065558203535213     0.9218468648558905    1.3715041863856472 
H   -2.976795033430243     1.2180818852934507    1.2542344548808173 
H   -2.1273985835094837   -0.03957808676938146   1.3106949172321571 
O   -0.6602750565499731   -1.8257933396456094   -1.772341685013     
O   -3.003370740198085    -0.7965137982607429    1.544417688062591  
H   -3.8423659457503425   -1.2421248228500847    1.3730181628509914 
H   -2.3661278840976956   -1.5197359515439577    1.5966785411689886 

14
energy 0.0, nre 0.0, age 0
O   -1.9535838312297946   -3.3375583988319972    2.0574688899419353 
H   -2.896747340262161    -3.1477490999712163    1.978254227702347  
H   -1.5813479960973655   -2.513206179724553     2.394728195690339  
O   -0.8762232085584207   -1.886838423772276     0.49908144324479853
O   -0.9856076099557183   -0.6444800182088339    0.7544969640454138 
H   -1.4952497566387593   -0.3975070155275062   -0.027250537190676383
H   -1.6377299755555774   -1.062205603467034     1.3307796144203303 
O   -2.065558203535213     0.9218468648558905    1.3715041863856472 
H    0.3038096320616761    0.2305778722199463   -3.4417037828750185 
H   -2.1273985835094837   -0.03957808676938146   1.3106949172321571 
O   -0.6602750565499731   -1.8257933396456094   -1.772341685013     
O   -3.003370740198085    -0.7965137982607429    1.544417688062591  
H   -3.8423659457503425   -1.2421248228500847    1.3730181628509914 
H   -2.3661278840976956   -1.5197359515439577    1.5966785411689886 

