16
energy 0.0, nre 0.0, age 0
O    2.5348590503432398   -0.9376464884749556    0.1504867024848125 
H    2.424325913024547    -1.8373403861653217   -0.18146698921209325
H    2.271308069698552    -1.0011052503934965    1.0769713507952903 
O   -0.705178246924247    -2.9626235271931103   -0.1291873591614474 
H   -0.5190111074760224   -2.1272657035297753    0.31733144229278154
H   -1.6595426843230534   -3.0681180019093706   -0.02959130577176672
O   -1.725672450375393     5.385235019502606     4.258793008388828  
H   -0.969927014187052     5.444857237064653     3.6611694109033555 
H   -1.5520312334641435    4.584239634986776     4.768807772088781  
O   -2.9818083550663737   -2.4312883337763695    1.380931235168134  
H   -3.910673874507607    -2.540326195576853     1.141808821109672  
H   -2.8972903871572893   -1.4839804443895495    1.5462322128543144 
O    1.6245604457667024   -0.44328726730650914  -1.7264496958531024 
H    2.2479605176224764   -0.7305414382349437   -2.405211310201199  
H    1.3523192945344245   -1.2664657006113047   -1.3020419203169018 
Ag  -3.4225542103887454    3.313972687550346    -0.9010075019714741 

16
energy 0.0, nre 0.0, age 0
O    2.5348590503432398   -0.9376464884749556    0.1504867024848125 
H    2.424325913024547    -1.8373403861653217   -0.18146698921209325
H    2.271308069698552    -1.0011052503934965    1.0769713507952903 
O   -0.705178246924247    -2.9626235271931103   -0.1291873591614474 
H   -0.5190111074760224   -2.1272657035297753    0.31733144229278154
H   -1.6595426843230534   -3.0681180019093706   -0.02959130577176672
O   -0.8486553586024801    0.4357109846070646   -2.302776884911683  
H   -0.969927014187052     5.444857237064653     3.6611694109033555 
H   -1.5520312334641435    4.584239634986776     4.768807772088781  
O   -2.9818083550663737   -2.4312883337763695    1.380931235168134  
H   -3.910673874507607    -2.540326195576853     1.141808821109672  
H   -2.8972903871572893   -1.4839804443895495    1.5462322128543144 
O    1.6245604457667024   -0.44328726730650914  -1.7264496958531024 
H    2.2479605176224764   -0.7305414382349437   -2.405211310201199  
H    1.3523192945344245   -1.2664657006113047   -1.3020419203169018 
Ag  -3.4225542103887454    3.313972687550346    -0.9010075019714741 

16
energy 0.0, nre 0.0, age 0
O    0.7497562286266901   -3.2644362986611446    2.294185463046077  
H    1.0913043037934056   -2.365109811952456     2.214081030758482  
H    1.5403392220307977   -3.7973137270056903    2.445447204141124  
O   -1.4281101788001163    0.5151999529215002    1.699146123347304  
H   -0.5644437475955728    0.2025640914735023    1.9961293739946697 
H   -1.2806813476780228    1.4501390140432755    1.509373551143872  
O   -1.7360230686190565    0.25208329926241624  -3.8547328266669387 
H   -1.99876094164002      0.6692294268727697   -3.024782312649321  
H   -1.9953875529757257   -0.6706134144364363   -3.739751192473747  
Ag   2.5982994722262927    0.6367333323074869    2.430934872109975  
O    2.1565878402914342   -0.6871913006947366   -1.108408328717792  
H    2.8500568192803923   -0.24932239140833712  -1.6175561764775084 
H    1.359401492634579    -0.19131165736263078  -1.3330352279448154 
O    5.676375998768625    -1.8948133474727615   -3.211188264483199  
H    5.628326807178329    -2.3279714440263524   -2.3498374207524986 
H    4.998254877208275    -1.2095900761302447   -3.161381133242863  

16
energy 0.0, nre 0.0, age 0
O    0.7497562286266901   -3.2644362986611446    2.294185463046077  
H    1.0913043037934056   -2.365109811952456     2.214081030758482  
H    1.5403392220307977   -3.7973137270056903    2.445447204141124  
O   -1.4281101788001163    0.5151999529215002    1.699146123347304  
H   -0.5644437475955728    0.2025640914735023    1.9961293739946697 
H   -1.2806813476780228    1.4501390140432755    1.509373551143872  
O   -1.7360230686190565    0.25208329926241624  -3.8547328266669387 
H   -1.99876094164002      0.6692294268727697   -3.024782312649321  
H   -1.9953875529757257   -0.6706134144364363   -3.739751192473747  
Ag   3.1569043577210767    0.15533928385172135  -3.2298299831803137 
O    2.1565878402914342   -0.6871913006947366   -1.108408328717792  
H    2.8500568192803923   -0.24932239140833712  -1.6175561764775084 
H    1.359401492634579    -0.19131165736263078  -1.3330352279448154 
O    5.676375998768625    -1.8948133474727615   -3.211188264483199  
H    5.628326807178329    -2.3279714440263524   -2.3498374207524986 
H    4.998254877208275    -1.2095900761302447   -3.161381133242863  

16
energy 0.0, nre 0.0, age 0
O    2.342560357233504    -3.2559392417561974   -4.365726895608534  
H    1.5574461996778024   -2.724236032724062    -4.546689307530264  
H    1.9972561162025615   -4.153470133278123    -4.281683946422401  
O   -0.7992472053528052    3.404539092463202    -2.629186093239958  
H   -0.3160149237642913    2.5858209294209322   -2.796658684888413  
H   -0.28724924417515174   4.073494287942502    -3.1005850448819587 
O   -1.9736642994506415   -2.66420412878728      0.5827161714437148 
H   -1.0422007502939008   -2.455926482420462     0.7271322925459895 
H   -2.395616484652049    -1.7980656983219472    0.5225454967524163 
Ag  -0.3441565694790558   -3.9372392304261936   -3.4674853690860994 
O    0.4669936385745712   -0.21313865349785244  -1.8360671435446194 
H   -0.38365269909341315  -0.34642093163561716  -1.3996080046043826 
H    0.423227727300894     0.6986603228263479   -2.1500211357194674 
O   -0.6011729966569754   -2.1347903426871424   -0.01453771404408366
H   -0.5517998717012339   -2.087853148847969     0.9483844696159505 
H   -1.4725848097535912   -2.51523545135738     -0.18115976751408347

16
energy 0.0, nre 0.0, age 0
O    2.342560357233504    -3.2559392417561974   -4.365726895608534  
H    1.5574461996778024   -2.724236032724062    -4.546689307530264  
H    1.9972561162025615   -4.153470133278123    -4.281683946422401  
O   -0.7992472053528052    3.404539092463202    -2.629186093239958  
H   -0.3160149237642913    2.5858209294209322   -2.796658684888413  
H   -0.28724924417515174   4.073494287942502    -3.1005850448819587 
O    2.8303060567881007    1.8231840557128205    2.977012365282051  
H   -1.0422007502939008   -2.455926482420462     0.7271322925459895 
H   -2.395616484652049    -1.7980656983219472    0.5225454967524163 
Ag  -0.3441565694790558   -3.9372392304261936   -3.4674853690860994 
O    0.4669936385745712   -0.21313865349785244  -1.8360671435446194 
H   -0.38365269909341315  -0.34642093163561716  -1.3996080046043826 
H    0.423227727300894     0.6986603228263479   -2.1500211357194674 
O   -0.6011729966569754   -2.1347903426871424   -0.01453771404408366
H   -0.5517998717012339   -2.087853148847969     0.9483844696159505 
H   -1.4725848097535912   -2.51523545135738     -0.18115976751408347

16
energy 0.0, nre 0.0, age 0
O    2.9124135288301893    5.429616196080311     1.6547161668587282 
H    2.4582261901670455    4.9918201359148515    0.924025802532161  
H    3.6945646733077497    4.88259933712431      1.7991878963712957 
O    3.500165323382996    -1.029183492355253    -1.326389410829599  
H    3.372148782384764    -1.8181963522224753   -1.8676198697036304 
H    2.7367727298657605   -0.47830114580667715  -1.5399785628063865 
O   -2.5218956896943356   -1.954214435483679     5.386226732057839  
H   -2.431138871215309    -1.0092362063818272    5.2111859258408515 
H   -1.6117291215042955   -2.275861357414824     5.386111930554767  
O    1.7248386247132785    0.6766332469158609   -2.8299084143263693 
H    2.401353581450732     0.13705675583694066  -2.4020712244942066 
H    1.928887800483992     1.5739315424276896   -2.538224269819233  
Ag   2.978465140251677    -2.7999618480784525    3.9478462596621027 
O    1.9967129192801476    1.5801028346945776    2.3290565534779812 
H    2.0229019061945688    2.333389761549555     1.725953842315297  
H    1.0740262574826875    1.5436580747928104    2.6104478131765765 

16
energy 0.0, nre 0.0, age 0
O    2.9124135288301893    5.429616196080311     1.6547161668587282 
H    2.4582261901670455    4.9918201359148515    0.924025802532161  
H    3.6945646733077497    4.88259933712431      1.7991878963712957 
O    3.500165323382996    -1.029183492355253    -1.326389410829599  
H    3.372148782384764    -1.8181963522224753   -1.8676198697036304 
H    0.1293087169813809    2.4320357211808696    0.4613292450560733 
O   -2.5218956896943356   -1.954214435483679     5.386226732057839  
H   -2.431138871215309    -1.0092362063818272    5.2111859258408515 
H   -1.6117291215042955   -2.275861357414824     5.386111930554767  
O    1.7248386247132785    0.6766332469158609   -2.8299084143263693 
H    2.401353581450732     0.13705675583694066  -2.4020712244942066 
H    1.928887800483992     1.5739315424276896   -2.538224269819233  
Ag   2.978465140251677    -2.7999618480784525    3.9478462596621027 
O    1.9967129192801476    1.5801028346945776    2.3290565534779812 
H    2.0229019061945688    2.333389761549555     1.725953842315297  
H    1.0740262574826875    1.5436580747928104    2.6104478131765765 

16
energy 0.0, nre 0.0, age 0
Ag  -0.7663695774451655   -2.545612329875045    -2.16575460475336   
O    1.7010070681842069    2.548532134541227    -0.04828002361973538
H    2.33543829807128      1.8228780141854486    0.0044745929806819795
H    2.2193515671196975    3.3246459866876985    0.19834967116108304
O   -1.3336415688083254   -4.7468710299005705    0.6476582744128421 
H   -1.1882758070141528   -4.846749859072807    -0.3014217813249146 
H   -2.2399738061850254   -5.054062281568478     0.7743679733646154 
O    2.1645040327012257   -1.8428917228806094   -1.4719190882785238 
H    2.8980474649848524   -1.2470176375537652   -1.2751754865847122 
H    2.2384155989541212   -1.9913176120874172   -2.4229010929480195 
O    0.2914528181369418    2.8785334279278745   -2.3569689670625302 
H    0.6552308954166739    3.772424575311457    -2.3789704337846254 
H    0.6120178662185667    2.5210909189734507   -1.5195127949801983 
O    0.17955334224205688  -2.7997139679607503   -4.9204090158717655 
H   -0.3420096789448753   -2.226391122304965    -4.344967561857969  
H   -0.40231794059210385  -3.5528013542091106   -5.082103593098527  

16
energy 0.0, nre 0.0, age 0
Ag  -0.7663695774451655   -2.545612329875045    -2.16575460475336   
O    1.7010070681842069    2.548532134541227    -0.04828002361973538
H    2.33543829807128      1.8228780141854486    0.0044745929806819795
H    2.2193515671196975    3.3246459866876985    0.19834967116108304
O   -1.3336415688083254   -4.7468710299005705    0.6476582744128421 
H   -1.1882758070141528   -4.846749859072807    -0.3014217813249146 
H   -2.2399738061850254   -5.054062281568478     0.7743679733646154 
O    2.1645040327012257   -1.8428917228806094   -1.4719190882785238 
H    1.7104350487152455   -3.6461476045985526    3.8295848458690607 
H    2.2384155989541212   -1.9913176120874172   -2.4229010929480195 
O    0.2914528181369418    2.8785334279278745   -2.3569689670625302 
H    0.6552308954166739    3.772424575311457    -2.3789704337846254 
H    0.6120178662185667    2.5210909189734507   -1.5195127949801983 
O    0.17955334224205688  -2.7997139679607503   -4.9204090158717655 
H   -0.3420096789448753   -2.226391122304965    -4.344967561857969  
H   -0.40231794059210385  -3.5528013542091106   -5.082103593098527  

16
energy 0.0, nre 0.0, age 0
O    0.2605820598794488   -3.915435903759329    -1.7319023802189624 
H   -0.39413736185255677  -3.545130588201747    -1.1268599110527824 
H    0.7032131154987118   -3.137989718057369    -2.0945525068656377 
O   -2.200680151767981    -4.390696951687948    -2.865379655335475  
H   -2.6373761944050003   -3.542079347556332    -3.010309520170444  
H   -2.147389862782964    -4.459894880476042    -1.904009940205374  
O    1.4364692355110003    3.480531645947478    -0.2448299473504869 
H    1.932702643170237     2.6529493649570686   -0.21799879509024112
H    0.5190160231971799    3.1948523421031596   -0.3371710323997641 
O    4.138891638299487    -2.5562548094911994   -3.692391428190069  
H    4.2347749352045945   -1.6948234500001926   -3.2674180835223323 
H    3.189114061308326    -2.6306433258032915   -3.8481118196090627 
Ag   1.436302063959932    -3.3577497929871196    1.9092560648370087 
O   -4.544816351231853    -1.5407077817801902   -1.5700233576801608 
H   -4.5291312686617715   -1.85817960567891     -2.4815196860508184 
H   -3.8594900840559685   -0.8610995609738108   -1.5521205325077267 

16
energy 0.0, nre 0.0, age 0
O    0.2605820598794488   -3.915435903759329    -1.7319023802189624 
H   -0.39413736185255677  -3.545130588201747    -1.1268599110527824 
H    0.7032131154987118   -3.137989718057369    -2.0945525068656377 
O   -2.200680151767981    -4.390696951687948    -2.865379655335475  
H   -2.6373761944050003   -3.542079347556332    -3.010309520170444  
H   -2.147389862782964    -4.459894880476042    -1.904009940205374  
O    1.4364692355110003    3.480531645947478    -0.2448299473504869 
H    1.932702643170237     2.6529493649570686   -0.21799879509024112
H    0.5190160231971799    3.1948523421031596   -0.3371710323997641 
O    4.138891638299487    -2.5562548094911994   -3.692391428190069  
H    4.2347749352045945   -1.6948234500001926   -3.2674180835223323 
H    3.189114061308326    -2.6306433258032915   -3.8481118196090627 
Ag   1.436302063959932    -3.3577497929871196    1.9092560648370087 
O   -4.544816351231853    -1.5407077817801902   -1.5700233576801608 
H   -4.5291312686617715   -1.85817960567891     -2.4815196860508184 
H    0.0654770152030224    3.2178540938621687    3.566610512540052  

16
energy 0.0, nre 0.0, age 0
O    3.4891383852919553    1.5509679402299656    1.311288380227306  
H    2.8545864754277774    1.8044559832919085    0.6294177010436712 
H    2.9881689570804406    0.9528196975253396    1.8797144960636532 
Ag  -2.4777750969741525   -1.7941508158687718    3.2900611315764188 
O    2.795755369373775    -2.523600299115607     2.0614235523840083 
H    2.0974611968002286   -3.150307050615424     1.834523059673278  
H    3.325429851857572    -2.997206498939397     2.714877489178324  
O    1.4222901575791789    3.37335656762538      4.394630097022209  
H    1.1080796564326558    4.275674337129104     4.532304863138142  
H    2.0973542021964757    3.467447468937759     3.711040033187779  
O   -3.9921082079673744    0.8278854007678078    3.2056450521844084 
H   -4.456357295441059     1.0406348279740654    4.024833921384461  
H   -3.085755226081711     0.6604360977849983    3.4926031337495345 
O    2.5767484403019325   -3.5633536574515525    0.8651017000944738 
H    3.043134658033215    -2.888551257591505     1.3740079335711621 
H    2.026693813456215    -3.0530960411847747    0.2576998479855386 

16
energy 0.0, nre 0.0, age 0
O    3.4891383852919553    1.5509679402299656    1.311288380227306  
H    2.8545864754277774    1.8044559832919085    0.6294177010436712 
H    2.9881689570804406    0.9528196975253396    1.8797144960636532 
Ag  -2.4777750969741525   -1.7941508158687718    3.2900611315764188 
O    2.795755369373775    -2.523600299115607     2.0614235523840083 
H    2.0974611968002286   -3.150307050615424     1.834523059673278  
H    3.325429851857572    -2.997206498939397     2.714877489178324  
O    1.4222901575791789    3.37335656762538      4.394630097022209  
H    1.1080796564326558    4.275674337129104     4.532304863138142  
H    2.0973542021964757    3.467447468937759     3.711040033187779  
O   -0.8460173472347385    1.565239964026932    -3.730523422591477  
H   -4.456357295441059     1.0406348279740654    4.024833921384461  
H   -3.085755226081711     0.6604360977849983    3.4926031337495345 
O    2.5767484403019325   -3.5633536574515525    0.8651017000944738 
H    3.043134658033215    -2.888551257591505     1.3740079335711621 
H    2.026693813456215    -3.0530960411847747    0.2576998479855386 

16
energy 0.0, nre 0.0, age 0
O    1.580360919644475    -3.0695961847819655   -1.4378346365270473 
H    1.4917003601781804   -2.1086110405614145   -1.460346748834211  
H    0.6677356401090886   -3.3836847423944443   -1.4198509064392657 
O    2.649239901733269     0.7221332641415484   -0.9593999906651618 
H    3.121508458968097     1.559842467143402    -1.0434573429392708 
H    2.851464358822633     0.26126679378754036  -1.7831519575073358 
O    3.97774119946275     -1.0006268436991315    1.7455389853542158 
H    3.2218950132000037   -1.459972329934937     2.1322665437268427 
H    4.370100059784518    -0.534192947254638     2.494106872985399  
O    3.3413297429864324   -3.021723122449863     2.8562429620611933 
H    3.4503249255252273   -3.978239759812615     2.785138039238729  
H    2.397693718882209    -2.8865554103069657    2.7041223486492405 
O   -2.7069220485762813   -4.379473571645078     2.6196426775996366 
H   -2.103281492884607    -4.47226441769132      3.367217339979435  
H   -2.286973637238363    -3.707887346424071     2.067849952632953  
Ag  -3.117718147399545    -2.8468688888921463   -0.4082153392545669 

16
energy 0.0, nre 0.0, age 0
O    1.580360919644475    -3.0695961847819655   -1.4378346365270473 
H    1.4917003601781804   -2.1086110405614145   -1.460346748834211  
H    0.6677356401090886   -3.3836847423944443   -1.4198509064392657 
O    2.649239901733269     0.7221332641415484   -0.9593999906651618 
H    3.121508458968097     1.559842467143402    -1.0434573429392708 
H    2.851464358822633     0.26126679378754036  -1.7831519575073358 
O   -1.4026442730098037   -1.263277951732558     1.8896054382547698 
H    3.2218950132000037   -1.459972329934937     2.1322665437268427 
H    4.370100059784518    -0.534192947254638     2.494106872985399  
O    3.3413297429864324   -3.021723122449863     2.8562429620611933 
H    3.4503249255252273   -3.978239759812615     2.785138039238729  
H    2.397693718882209    -2.8865554103069657    2.7041223486492405 
O   -2.7069220485762813   -4.379473571645078     2.6196426775996366 
H   -2.103281492884607    -4.47226441769132      3.367217339979435  
H   -2.286973637238363    -3.707887346424071     2.067849952632953  
Ag  -3.117718147399545    -2.8468688888921463   -0.4082153392545669 

16
energy 0.0, nre 0.0, age 0
Ag  -3.172016816931934     3.8037258653772588   -0.5883580924179839 
O    1.8763858446965171    0.7536570859405309   -0.8030858146492328 
H    1.1710372566198508    0.647232161797926    -0.1526882114575434 
H    2.624020394459665     0.2872733733219657   -0.40889201710470213
O   -3.6446226063314273    1.8894513705135019    0.8786157932136671 
H   -3.0253417670284954    1.1585962475395921    0.9977878063419501 
H   -3.073809854350258     2.6650614903916354    0.811819973461892  
O    0.9595220613753112   -3.622297707809375     1.8660698885277969 
H    0.8939069775435998   -3.073728971072105     1.074472175502909  
H    0.09556895004309796  -3.524065656014381     2.285349536063346  
O    2.238695622291859     2.4480802029892255   -0.33073781353029696
H    1.932957921935453     1.664279169514909    -0.8040668068566834 
H    2.8023850337455976    2.089716870143919     0.36617674830991975
O    1.474942506059277    -0.17981604896711537   2.6952320362248843 
H    1.4090803287904594    0.4911853241792238    3.3860860499348275 
H    1.5733399572122122   -1.0052580874970407    3.185969562864296  

16
energy 0.0, nre 0.0, age 0
Ag  -3.172016816931934     3.8037258653772588   -0.5883580924179839 
O    1.8763858446965171    0.7536570859405309   -0.8030858146492328 
H    1.1710372566198508    0.647232161797926    -0.1526882114575434 
H    2.624020394459665     0.2872733733219657   -0.40889201710470213
O   -3.6446226063314273    1.8894513705135019    0.8786157932136671 
H   -3.0253417670284954    1.1585962475395921    0.9977878063419501 
H   -3.073809854350258     2.6650614903916354    0.811819973461892  
O    0.9595220613753112   -3.622297707809375     1.8660698885277969 
H    0.8939069775435998   -3.073728971072105     1.074472175502909  
H    2.7377596115495875    3.3813517958453643   -1.161741632949644  
O    2.238695622291859     2.4480802029892255   -0.33073781353029696
H    1.932957921935453     1.664279169514909    -0.8040668068566834 
H    2.8023850337455976    2.089716870143919     0.36617674830991975
O    1.474942506059277    -0.17981604896711537   2.6952320362248843 
H    1.4090803287904594    0.4911853241792238    3.3860860499348275 
H    1.5733399572122122   -1.0052580874970407    3.185969562864296  

16
energy 0.0, nre 0.0, age 0
O    2.8868652862211954   -4.532250664607121    -1.5425882578708219 
H    2.0659387040302084   -4.2121512455379      -1.1482840022739895 
H    3.2001426341613692   -5.194531740115762    -0.9140176431355407 
O   -2.3855074845167006    0.9618479466835825   -5.120176882725049  
H   -1.7427042263562544    0.3669173297825372   -4.714317954290481  
H   -2.208828996437985     1.8122056828709001   -4.698826233295622  
Ag   2.5018749696279237    0.5866529965646903    1.5532842780269212 
O   -4.975000739707775    -1.8234694370730775   -1.2084568890451208 
H   -4.277547057251731    -1.704915625552759    -1.8652394192790702 
H   -4.8396579998016875   -1.0901968146970116   -0.5953879357890934 
O   -0.5939911505287047    0.3458957508041989    0.13919132304019777
H   -0.14039360934496847   0.4164843376487657    0.9883829736452634 
H   -1.5249920657625222    0.4624183553392507    0.3661708725246431 
O    1.43701367049538      0.5101695218259883    1.8645945457563884 
H    0.9032520764049123    0.8253731639625663    2.604598033637249  
H    2.3442240180443106    0.6792968823472696    2.147835183097243  

16
energy 0.0, nre 0.0, age 0
O    2.8868652862211954   -4.532250664607121    -1.5425882578708219 
H    2.0659387040302084   -4.2121512455379      -1.1482840022739895 
H    3.2001426341613692   -5.194531740115762    -0.9140176431355407 
O   -2.3855074845167006    0.9618479466835825   -5.120176882725049  
H   -1.7427042263562544    0.3669173297825372   -4.714317954290481  
H   -2.208828996437985     1.8122056828709001   -4.698826233295622  
Ag   2.5018749696279237    0.5866529965646903    1.5532842780269212 
O   -4.975000739707775    -1.8234694370730775   -1.2084568890451208 
H   -4.277547057251731    -1.704915625552759    -1.8652394192790702 
H   -4.8396579998016875   -1.0901968146970116   -0.5953879357890934 
O   -0.4526128201440889    2.2808135080013985   -0.27453942656082386
H   -0.14039360934496847   0.4164843376487657    0.9883829736452634 
H   -1.5249920657625222    0.4624183553392507    0.3661708725246431 
O    1.43701367049538      0.5101695218259883    1.8645945457563884 
H    0.9032520764049123    0.8253731639625663    2.604598033637249  
H    2.3442240180443106    0.6792968823472696    2.147835183097243  

