12
energy 0.0, nre 0.0, age 0
C    1.7608204759226362    0.5889539397491133    1.3157478298154297 
C   -1.6370679619616029   -1.787220430600267     3.867485688958719  
H    3.047179926526452    -2.1278655538075597   -0.9524049657111311 
C   -2.9444501396840037   -3.2936718469417725   -1.4919606839381698 
C   -0.29112204540068554   1.709087379889663    -2.3526007241063205 
H   -3.275590686257755     0.6552987391011653   -1.5084199943595769 
H   -3.0308198358549845   -2.3637614614371243   -0.9064786967283709 
C   -3.851424003280492    -3.4225542103887454    3.313972687550346  
H   -0.9010075019714741    2.175330846758218    -0.9809339245379709 
H    3.0044399964769486   -1.8834548771045547    3.2150185962433193 
C    0.7006794896708088    2.475462047531696    -2.2092735782357753 
H    2.8681956878774475   -0.9966646103638883    1.4136564723163687 

12
energy 0.0, nre 0.0, age 1
C   -3.0308198358549845   -2.3637614614371243   -0.9064786967283709 
C   -1.6370679619616029   -1.787220430600267     3.867485688958719  
H    3.047179926526452    -2.1278655538075597   -0.9524049657111311 
C   -2.9444501396840037   -3.2936718469417725   -1.4919606839381698 
C   -0.29112204540068554   1.709087379889663    -2.3526007241063205 
H   -3.275590686257755     0.6552987391011653   -1.5084199943595769 
H    1.7608204759226362    0.5889539397491133    1.3157478298154297 
C   -3.851424003280492    -3.4225542103887454    3.313972687550346  
H   -0.9010075019714741    2.175330846758218    -0.9809339245379709 
H    3.0044399964769486   -1.8834548771045547    3.2150185962433193 
C    0.7006794896708088    2.475462047531696    -2.2092735782357753 
H    2.8681956878774475   -0.9966646103638883    1.4136564723163687 

12
energy 0.0, nre 0.0, age 0
H   -3.426557536950237     3.4614691053134417    2.727133162462505  
H    2.362927942906092     2.3560554815915937    1.123551579489428  
C   -0.43255307327271453  -3.6238131884429423    1.11006270432651   
C    1.6590156585096558    3.9443822444896304   -2.7628696206539702 
C   -3.0627517928681502   -3.2231387082281904   -3.529918677864605  
C    0.9679117471834457    1.3857678043171084   -1.6365571406673425 
C    0.9694610711719136   -1.3339197996709817    1.6390086146755394 
C    3.1166048271404563    1.190706056680031    -3.320498625630629  
H   -2.802262409083034    -2.555152264582947     1.7533505982692272 
H    2.9445091905492626   -3.1472539728525932    2.399816011524427  
H    0.5673131482275844   -3.5431707299052455    0.7782988620043563 
H   -2.4335908165179294    0.9444633079949352    3.5436295538668743 

12
energy 0.0, nre 0.0, age 1
H   -3.426557536950237     3.4614691053134417    2.727133162462505  
H    2.362927942906092     2.3560554815915937    1.123551579489428  
C   -0.43255307327271453  -3.6238131884429423    1.11006270432651   
C    1.6590156585096558    3.9443822444896304   -2.7628696206539702 
C   -3.0627517928681502   -3.2231387082281904   -3.529918677864605  
C    2.9445091905492626   -3.1472539728525932    2.399816011524427  
C    0.9694610711719136   -1.3339197996709817    1.6390086146755394 
C    3.1166048271404563    1.190706056680031    -3.320498625630629  
H   -2.802262409083034    -2.555152264582947     1.7533505982692272 
H    0.9679117471834457    1.3857678043171084   -1.6365571406673425 
H    0.5673131482275844   -3.5431707299052455    0.7782988620043563 
H   -2.4335908165179294    0.9444633079949352    3.5436295538668743 

12
energy 0.0, nre 0.0, age 0
C    0.9172053942826599    0.8502162137480473    1.7841802425927344 
H    1.9538684794656218   -3.299590871256        0.9866246827539715 
C    3.4609454963368265   -3.713321669124631    -3.8319386237408466 
H    0.4293026421780519    0.70529268328435      1.3697426717450014 
H    2.52570879784602     -2.5784394525097003   -2.366303443385526  
C    3.35810794229681     -0.9309408089623421   -0.09937529479602869
C   -3.180758417771819    -2.2610800871940935   -2.673583261173464  
C    0.8618730189233048   -0.6170236912952891   -3.9477121411800287 
H    0.6843333415913779   -2.9317198304249166    3.968886109165478  
C    2.518665442767568     3.8885358714622438   -0.23079464555862916
H   -0.6815239533255699    0.29782760494694305   2.039726025619408  
H    2.326805332277778     3.6798614716335054    2.2636323259339646 

12
energy 0.0, nre 0.0, age 1
C    0.9172053942826599    0.8502162137480473    1.7841802425927344 
H    1.9538684794656218   -3.299590871256        0.9866246827539715 
C    3.4609454963368265   -3.713321669124631    -3.8319386237408466 
H    0.4293026421780519    0.70529268328435      1.3697426717450014 
H    2.52570879784602     -2.5784394525097003   -2.366303443385526  
C    3.35810794229681     -0.9309408089623421   -0.09937529479602869
C    2.326805332277778     3.6798614716335054    2.2636323259339646 
C    0.8618730189233048   -0.6170236912952891   -3.9477121411800287 
H    0.6843333415913779   -2.9317198304249166    3.968886109165478  
C    2.518665442767568     3.8885358714622438   -0.23079464555862916
H   -0.6815239533255699    0.29782760494694305   2.039726025619408  
H   -3.180758417771819    -2.2610800871940935   -2.673583261173464  

12
energy 0.0, nre 0.0, age 0
C    1.450877687458215     0.76861729151888     -0.9084918054741866 
H   -3.812252961180918     2.835649547582465     0.2553375549288113 
C    2.978465140251677    -2.7999618480784525    3.9478462596621027 
H    1.6075111827951112    3.1884009480596323    3.3475145208186383 
C   -2.5524805900605143    1.112586461415403     1.5758793974110183 
H    2.3078791747723946    1.0115168002023447   -0.09395713633074543
H    0.19563272962898992  -0.7663695774451655   -2.545612329875045  
C   -2.16575460475336      2.2465934718032914    2.351307004394287  
H    1.806118846257169    -0.5987794740821011    1.636370816937652  
C   -0.28194830595514286   1.0168599252810884   -3.809145168530855  
H   -1.5584587503991774    1.8372040758255404   -0.15554233872973633
C   -2.378056074837989     2.887465794412737    -0.21613076710562762

12
energy 0.0, nre 0.0, age 1
C    1.450877687458215     0.76861729151888     -0.9084918054741866 
H   -3.812252961180918     2.835649547582465     0.2553375549288113 
C    2.978465140251677    -2.7999618480784525    3.9478462596621027 
H    1.6075111827951112    3.1884009480596323    3.3475145208186383 
C   -2.5524805900605143    1.112586461415403     1.5758793974110183 
H    2.3078791747723946    1.0115168002023447   -0.09395713633074543
H    0.19563272962898992  -0.7663695774451655   -2.545612329875045  
C   -2.16575460475336      2.2465934718032914    2.351307004394287  
H    1.806118846257169    -0.5987794740821011    1.636370816937652  
C   -1.5584587503991774    1.8372040758255404   -0.15554233872973633
H   -0.28194830595514286   1.0168599252810884   -3.809145168530855  
C   -2.378056074837989     2.887465794412737    -0.21613076710562762

12
energy 0.0, nre 0.0, age 0
H   -1.4240258851987706   -1.0334884491201786   -2.9108956690709986 
H   -2.7767171384445453   -2.393296177553263    -2.9328565487319214 
C   -0.06390840030076461  -1.026495882102762    -2.9841881135652057 
C   -2.218555387446898     2.96075187646539     -3.9788936694226402 
C   -3.3980895863544376   -0.8707560013957982    3.0873145072563988 
H    0.4170903390810974   -1.5151699151611222   -0.29941219093900706
C   -3.230809344189997     1.200911786994146     2.024056031298228  
H    3.290029846240631     1.3644722960853812    3.3804758836826787 
C    2.139090424619562     1.2440159391987011    2.5999321703591276 
H   -1.9661270561345212    2.7778635264253193   -1.8778360222686619 
C    0.3145540698378646    3.2436487412520343   -2.62516299957488   
H   -1.9692694763242997   -2.6793453135764613    2.5859014017528743 

12
energy 0.0, nre 0.0, age 1
H   -1.4240258851987706   -1.0334884491201786   -2.9108956690709986 
H   -2.7767171384445453   -2.393296177553263    -2.9328565487319214 
C   -0.06390840030076461  -1.026495882102762    -2.9841881135652057 
C   -2.218555387446898     2.96075187646539     -3.9788936694226402 
C   -3.3980895863544376   -0.8707560013957982    3.0873145072563988 
H    0.4170903390810974   -1.5151699151611222   -0.29941219093900706
C   -1.9692694763242997   -2.6793453135764613    2.5859014017528743 
H    3.290029846240631     1.3644722960853812    3.3804758836826787 
C    2.139090424619562     1.2440159391987011    2.5999321703591276 
H   -1.9661270561345212    2.7778635264253193   -1.8778360222686619 
C    0.3145540698378646    3.2436487412520343   -2.62516299957488   
H   -3.230809344189997     1.200911786994146     2.024056031298228  

12
energy 0.0, nre 0.0, age 0
H    0.38169167752097977   3.621176064778335     2.5437986072736276 
C    3.8481953754659655    1.6058951479155565    2.0628569140512125 
C    2.5656347242538384    2.1548107134054018   -2.1465259320717234 
C    0.7561787478753423    2.4574540422189424   -2.4777750969741525 
H   -1.7941508158687718    3.2900611315764188    3.9202806442984652 
H    0.7384962239791344   -3.266829475744518     3.5824444075314545 
H    1.1223953341316673    3.5145197049326518    1.6998598724244829 
C   -2.81082024104857      3.6399910071031636   -1.295874372682034  
C    1.0457843628817418    3.2659993087495804    0.5551914299691045 
H    3.9711825178993134    2.761810029123642    -1.105353159541111  
H   -3.0027479211053354    0.24334768922460182  -3.2600483674556795 
C    2.4856026628013934    3.9066581144322443    0.4597959724811558 

12
energy 0.0, nre 0.0, age 1
H    0.38169167752097977   3.621176064778335     2.5437986072736276 
C    3.9711825178993134    2.761810029123642    -1.105353159541111  
C    2.5656347242538384    2.1548107134054018   -2.1465259320717234 
C    0.7561787478753423    2.4574540422189424   -2.4777750969741525 
H   -1.7941508158687718    3.2900611315764188    3.9202806442984652 
H    0.7384962239791344   -3.266829475744518     3.5824444075314545 
H    1.1223953341316673    3.5145197049326518    1.6998598724244829 
C   -2.81082024104857      3.6399910071031636   -1.295874372682034  
C    1.0457843628817418    3.2659993087495804    0.5551914299691045 
H    3.8481953754659655    1.6058951479155565    2.0628569140512125 
H   -3.0027479211053354    0.24334768922460182  -3.2600483674556795 
C    2.4856026628013934    3.9066581144322443    0.4597959724811558 

12
energy 0.0, nre 0.0, age 0
H   -1.2080966104987656    0.7719377910362049   -2.4941303200879155 
H    0.23268879284452826  -2.180172005340008     1.9657018018732293 
H    1.4497714634451935    1.8580448959643627    1.7218712783917542 
C   -2.425650927607955    -0.7245005768854993   -3.4374419674157384 
H   -0.6009560853776961    2.707423333629677     0.3328832059446869 
C    2.364732744706224     3.6878688103771182   -3.7561220203861323 
H   -1.1966243877808633    2.9387152501318816   -3.5455386811107763 
C    1.028983737149618    -0.3533647307129266   -2.2495021071745045 
C   -3.37012082369567     -2.69539758170501     -2.7040536139468028 
H    3.6036104597886007    1.7585334503817824    0.6533340177119138 
C    2.77487635055426     -3.117718147399545    -2.8468688888921463 
C   -0.4082153392545669    2.6372455750983956   -3.1801536322986133 

12
energy 0.0, nre 0.0, age 1
H   -1.2080966104987656    0.7719377910362049   -2.4941303200879155 
H    0.23268879284452826  -2.180172005340008     1.9657018018732293 
H   -0.4082153392545669    2.6372455750983956   -3.1801536322986133 
C   -2.425650927607955    -0.7245005768854993   -3.4374419674157384 
H   -0.6009560853776961    2.707423333629677     0.3328832059446869 
C    2.364732744706224     3.6878688103771182   -3.7561220203861323 
H   -1.1966243877808633    2.9387152501318816   -3.5455386811107763 
C    1.028983737149618    -0.3533647307129266   -2.2495021071745045 
C   -3.37012082369567     -2.69539758170501     -2.7040536139468028 
H    3.6036104597886007    1.7585334503817824    0.6533340177119138 
C    2.77487635055426     -3.117718147399545    -2.8468688888921463 
C    1.4497714634451935    1.8580448959643627    1.7218712783917542 

12
energy 0.0, nre 0.0, age 0
C    1.5804427005610897   -2.741998931702919     2.128834051997435  
H    2.5825300745617383   -2.4386225151997882    2.1661164750698196 
H   -1.5169613277213374    0.7609145015955416   -1.77155317399912   
C    2.4234361524387102    1.5246432015449614    3.3090058914470184 
C   -2.519860529146656     1.1272699716555081    1.4049317907848229 
H    0.8742235375508169   -1.6960021104143       0.8339322061841763 
C   -3.9046014215573885    3.166244369229074    -0.12184059797666702
C    3.649954141916929     0.16827886007268145  -0.01640048676555317
C    0.14138222929928723  -3.205739188109134     2.8287915829988775 
H    3.5559043899372984   -1.9727767351488756    1.512282534280927  
H    1.1414625914903214    2.442808698070258     3.322890435003905  
H   -3.6316514793195562    0.1229929084085688   -0.22647806020351346

12
energy 0.0, nre 0.0, age 1
C    1.5804427005610897   -2.741998931702919     2.128834051997435  
H    2.5825300745617383   -2.4386225151997882    2.1661164750698196 
H   -1.5169613277213374    0.7609145015955416   -1.77155317399912   
C    2.4234361524387102    1.5246432015449614    3.3090058914470184 
C   -2.519860529146656     1.1272699716555081    1.4049317907848229 
H    0.8742235375508169   -1.6960021104143       0.8339322061841763 
C   -3.6316514793195562    0.1229929084085688   -0.22647806020351346
C    3.649954141916929     0.16827886007268145  -0.01640048676555317
C    0.14138222929928723  -3.205739188109134     2.8287915829988775 
H    3.5559043899372984   -1.9727767351488756    1.512282534280927  
H    1.1414625914903214    2.442808698070258     3.322890435003905  
H   -3.9046014215573885    3.166244369229074    -0.12184059797666702

12
energy 0.0, nre 0.0, age 0
H    1.247775941244229     0.5424514611721509    0.167263612992695  
C   -2.1178275253902212    1.6791957662663979    2.432253527256183  
H    2.0139208760990313    0.42911261242727505  -0.545760889828034  
H    2.055500365655834    -3.598139753186701    -1.5048019685003    
H   -0.9358817193168676   -0.8486553586024801    0.4357109846070646 
H   -2.302776884911683    -2.5005169093958033    1.2434374840170284 
C    0.8583747461738103    3.1569043577210767    0.15533928385172135
C   -3.2298299831803137    0.41775281056981317  -1.2875895516222284 
H   -0.8666707998823346    2.8303060567881007    1.8231840557128205 
C    2.977012365282051     0.3969439966749402    1.5379487914455456 
C   -1.1099718372316314    0.1293087169813809    2.4320357211808696 
C    0.4613292450560733   -2.396841993881911     1.5011373498078084 

12
energy 0.0, nre 0.0, age 1
H    1.247775941244229     0.5424514611721509    0.167263612992695  
C   -2.1178275253902212    1.6791957662663979    2.432253527256183  
H    2.0139208760990313    0.42911261242727505  -0.545760889828034  
H    2.055500365655834    -3.598139753186701    -1.5048019685003    
H   -0.9358817193168676   -0.8486553586024801    0.4357109846070646 
H   -2.302776884911683    -2.5005169093958033    1.2434374840170284 
C    0.8583747461738103    3.1569043577210767    0.15533928385172135
C   -3.2298299831803137    0.41775281056981317  -1.2875895516222284 
H    2.977012365282051     0.3969439966749402    1.5379487914455456 
C   -0.8666707998823346    2.8303060567881007    1.8231840557128205 
C   -1.1099718372316314    0.1293087169813809    2.4320357211808696 
C    0.4613292450560733   -2.396841993881911     1.5011373498078084 

12
energy 0.0, nre 0.0, age 0
H    1.565239964026932    -3.730523422591477     3.428581381192645  
H    0.04227065870805369  -0.6432238562946377   -1.4026442730098037 
H   -1.263277951732558     1.8896054382547698   -3.2737930624524267 
H    2.1301683163096197    0.630867885215376     2.7377596115495875 
C    3.3813517958453643   -1.161741632949644     1.314293114877267  
C    1.943763292438783     1.4726525890784057   -0.4526128201440889 
C    2.2808135080013985   -0.27453942656082386   2.071775022954143  
H    0.4429038279242006    1.8303968768316299    3.7593187962918746 
H    2.7803232393006088   -1.9322545819986665    1.850268699952001  
C    0.1283453577908693   -0.6958606663168325    3.192407537078161  
C   -1.174898522925318    -1.8140542938473203   -1.2085564099363975 
C   -2.4322805154223355    0.5516795947700137    0.7390885644859635 

12
energy 0.0, nre 0.0, age 1
H    0.1283453577908693   -0.6958606663168325    3.192407537078161  
H    0.04227065870805369  -0.6432238562946377   -1.4026442730098037 
H   -1.263277951732558     1.8896054382547698   -3.2737930624524267 
H    2.1301683163096197    0.630867885215376     2.7377596115495875 
C    3.3813517958453643   -1.161741632949644     1.314293114877267  
C    1.943763292438783     1.4726525890784057   -0.4526128201440889 
C    2.2808135080013985   -0.27453942656082386   2.071775022954143  
H    0.4429038279242006    1.8303968768316299    3.7593187962918746 
H    2.7803232393006088   -1.9322545819986665    1.850268699952001  
C    1.565239964026932    -3.730523422591477     3.428581381192645  
C   -1.174898522925318    -1.8140542938473203   -1.2085564099363975 
C   -2.4322805154223355    0.5516795947700137    0.7390885644859635 

