16
energy 0.0, nre 0.0, age 0
O    2.5348590503432398   -0.9376464884749556    0.1504867024848125 
H    2.424325913024547    -1.8373403861653217   -0.18146698921209325
H    2.271308069698552    -1.0011052503934965    1.0769713507952903 
O   -0.705178246924247    -2.9626235271931103   -0.1291873591614474 
H   -0.5190111074760224   -2.1272657035297753    0.31733144229278154
H   -1.6595426843230534   -3.0681180019093706   -0.02959130577176672
O    0.4130062693911976   -1.3732731384002888   -0.6964266726167838 
H    1.3034397960092519   -1.2668101185289486   -0.3391400964731936 
H    0.43921467462842795  -0.8826866254105232   -1.5273887236067574 
O   -0.6193854880798588   -2.2293064133362424    1.8014550377440135 
H   -1.0994147761225634   -1.4099635400431536    1.6279353673229338 
H   -0.3864765732012989   -2.549431162994311     0.9210383639784319 
O    0.4640517327562693    0.020584001007659003   2.056417449084659  
H    1.412033783169892    -0.15980495520294163   2.030926392048239  
H    0.06931185646584348  -0.7728287226720039    1.6736164336896648 
Ag   1.4745582241699413   -0.2904978439912176   -1.4240258851987706 

16
energy 0.0, nre 0.0, age 0
O    2.5348590503432398   -0.9376464884749556    0.1504867024848125 
H    2.424325913024547    -1.8373403861653217   -0.18146698921209325
H    2.271308069698552    -1.0011052503934965    1.0769713507952903 
O   -0.705178246924247    -2.9626235271931103   -0.1291873591614474 
H   -0.5190111074760224   -2.1272657035297753    0.31733144229278154
H   -1.6595426843230534   -3.0681180019093706   -0.02959130577176672
O    0.4130062693911976   -1.3732731384002888   -0.6964266726167838 
H    1.3034397960092519   -1.2668101185289486   -0.3391400964731936 
H    0.43921467462842795  -0.8826866254105232   -1.5273887236067574 
O   -0.6193854880798588   -2.2293064133362424    1.8014550377440135 
H   -1.0994147761225634   -1.4099635400431536    1.6279353673229338 
H   -0.3864765732012989   -2.549431162994311     0.9210383639784319 
O    0.47955189589240577   0.6297272206423798    3.8137876415941445 
H    1.4275339463060284    0.4493382644317792    3.7882965845577248 
H    0.08481201960197993  -0.16368550303728302   3.43098662619915   
Ag   1.4745582241699413   -0.2904978439912176   -1.4240258851987706 

16
energy 0.0, nre 0.0, age 0
O   -1.3628811005218524    2.8099499838470714   -2.240953006380811  
H   -0.6795639344196494    2.7512259430685084   -2.920282878359581  
H   -1.8972643659285406    2.0189074262392817   -2.3842922373143276 
O   -2.6601941607290804    0.9689099126764977   -2.023833015391904  
H   -1.9379042206042434    1.0673945517785173   -2.65665048960813   
H   -3.3345124227352514    1.5784124038787075   -2.3488892138580733 
Ag  -1.8574783811720366    3.060099391096055    -0.006384925802886521
O   -2.1885649335003894    2.245535910131405     0.6025982219372754 
H   -2.4596440094857073    2.391221598033161     1.5175581950079768 
H   -1.75704731740113      1.3823411589528274    0.6259927929264004 
O   -1.273487216193121     3.6288768689225517   -1.2523915818499667 
H   -1.8600339301095592    2.8635964694676783   -1.2058212047630503 
H   -0.8594845412414651    3.6538198067618506   -0.3807038095353503 
O   -3.5992570734516875    0.41637649889100503  -0.19210071090685787
H   -2.856251764152561     0.5238259342253873   -0.798943084689071  
H   -3.4986050768775288    1.1510589067683992    0.4259372107121232 

16
energy 0.0, nre 0.0, age 0
O   -1.3628811005218524    2.8099499838470714   -2.240953006380811  
H   -0.6795639344196494    2.7512259430685084   -2.920282878359581  
H   -1.8972643659285406    2.0189074262392817   -2.3842922373143276 
O   -2.6601941607290804    0.9689099126764977   -2.023833015391904  
H   -1.9379042206042434    1.0673945517785173   -2.65665048960813   
H   -3.3345124227352514    1.5784124038787075   -2.3488892138580733 
Ag  -1.8574783811720366    3.060099391096055    -0.006384925802886521
O    0.9577419783873928    3.305118842855146     1.7443993654541057 
H    0.686662902402075     3.4508045307569017    2.659359338524807  
H    1.3892595944866521    2.441924091676568     1.7677939364432307 
O   -1.273487216193121     3.6288768689225517   -1.2523915818499667 
H   -1.8600339301095592    2.8635964694676783   -1.2058212047630503 
H   -0.8594845412414651    3.6538198067618506   -0.3807038095353503 
O   -3.5992570734516875    0.41637649889100503  -0.19210071090685787
H   -2.856251764152561     0.5238259342253873   -0.798943084689071  
H   -3.4986050768775288    1.1510589067683992    0.4259372107121232 

16
energy 0.0, nre 0.0, age 0
O   -3.795557458346728    -1.047377943454796    -1.9324315317678753 
H   -2.9490293038445055   -1.2983848994564218   -1.5422450006166075 
H   -3.566128478244428    -0.3294208295651232   -2.5355566125947546 
Ag  -3.072163237807663    -2.952197374932452     1.437643395458002  
O   -0.8248092415189997   -2.1807226772255954   -0.9290075835198941 
H   -0.7868894465083667   -3.132187085180433    -0.7704594616152105 
H   -0.1369063819282359   -1.8246922982840477   -0.35290693046038935
O   -2.234562286180265    -2.5389839002989034   -3.183554558713989  
H   -2.6101731739161034   -2.801515045523386    -2.333934763617725  
H   -1.6735390345179604   -1.7850007649246842   -2.963049955398057  
O   -3.214676466375491    -3.2159537835842826    0.25878243981990257
H   -2.966803063358248    -2.2944254907963404    0.11316541098744803
H   -4.139643085792903    -3.164446061655909     0.5301560659578799 
O   -2.727609006273251    -1.6790578572500297    0.12204685206535903
H   -2.0498744147624453   -1.086644418695719     0.4707330701869532 
H   -3.1677726911378814   -2.0146115082815634    0.9129448323534606 

16
energy 0.0, nre 0.0, age 0
O    2.323006827687908     0.6002214114665403   -1.0166788229965062 
H    3.1695349821901306    0.3492144554649146   -0.6264922918452385 
H    2.552435807790208     1.3181785253562133   -1.6198039038233856 
Ag  -3.072163237807663    -2.952197374932452     1.437643395458002  
O   -0.8248092415189997   -2.1807226772255954   -0.9290075835198941 
H   -0.7868894465083667   -3.132187085180433    -0.7704594616152105 
H   -0.1369063819282359   -1.8246922982840477   -0.35290693046038935
O   -2.234562286180265    -2.5389839002989034   -3.183554558713989  
H   -2.6101731739161034   -2.801515045523386    -2.333934763617725  
H   -1.6735390345179604   -1.7850007649246842   -2.963049955398057  
O   -3.214676466375491    -3.2159537835842826    0.25878243981990257
H   -2.966803063358248    -2.2944254907963404    0.11316541098744803
H   -4.139643085792903    -3.164446061655909     0.5301560659578799 
O   -2.727609006273251    -1.6790578572500297    0.12204685206535903
H   -2.0498744147624453   -1.086644418695719     0.4707330701869532 
H   -3.1677726911378814   -2.0146115082815634    0.9129448323534606 

16
energy 0.0, nre 0.0, age 0
O    3.129458995183761     0.11325485981111294   2.039444632768528  
H    2.3712965698832846   -0.3937630383209165    1.7232444979578694 
H    2.739418229641368     0.7542782229032611    2.6467478408970018 
O    2.391058908518757    -2.757761427818112     2.1120071688348068 
H    3.263566363362791    -2.3877094245000525    1.9285618268392226 
H    1.936195756255599    -2.049277072141234     2.5842458456628945 
O    2.8727015422259368   -3.011513580317548     0.3000621517702302 
H    3.1258729845087023   -2.2475001125494427    0.8330232941618856 
H    1.956379898012489    -3.1757416157184855    0.5554906821898211 
Ag   1.3048335892577372   -0.5342811667226499    1.981557349951773  
O    3.9760306352950394    0.1010141007915697    0.8523645535309243 
H    4.3680726845290945    0.9822800591939248    0.8132074390874351 
H    4.359908017019775    -0.3546508716476413    0.09284659712032417
O    4.504080218530119    -2.4289077350327437    1.9875445839692203 
H    4.281107142004716    -1.6464823750964155    2.507115080332615  
H    5.1335333946709      -2.0986781221957815    1.3344006187748438 

16
energy 0.0, nre 0.0, age 0
O    3.129458995183761     0.11325485981111294   2.039444632768528  
H    2.3712965698832846   -0.3937630383209165    1.7232444979578694 
H    2.739418229641368     0.7542782229032611    2.6467478408970018 
O    2.391058908518757    -2.757761427818112     2.1120071688348068 
H    3.263566363362791    -2.3877094245000525    1.9285618268392226 
H    1.936195756255599    -2.049277072141234     2.5842458456628945 
O    2.8727015422259368   -3.011513580317548     0.3000621517702302 
H    3.1258729845087023   -2.2475001125494427    0.8330232941618856 
H    1.956379898012489    -3.1757416157184855    0.5554906821898211 
Ag   1.3048335892577372   -0.5342811667226499    1.981557349951773  
O   -1.9453141906283253    3.6485089406907365   -1.7826633384102282 
H   -1.5532721413942703    4.529774899093091    -1.8218204528537174 
H   -1.56143680890359      3.192843968251525    -2.5421812948208284 
O    4.504080218530119    -2.4289077350327437    1.9875445839692203 
H    4.281107142004716    -1.6464823750964155    2.507115080332615  
H    5.1335333946709      -2.0986781221957815    1.3344006187748438 

16
energy 0.0, nre 0.0, age 0
O   -2.3522045463500536   -0.2881989468672451   -4.112174253429617  
H   -1.4811705920214049    0.097999340688534    -3.9572204844739023 
H   -2.9296652641774057    0.4794444225514351   -4.207687153981613  
Ag  -1.5177064396781486    1.9895310933895676   -0.01881270494865106
O   -2.044543380846765    -0.41282180195400475  -1.155669010611144  
H   -1.824499988503773    -1.2959013154801384   -0.8337817388922464 
H   -1.2606619659931702    0.10980758446217315  -0.9453159994147835 
O   -0.04585854313804516   0.28711649928047644  -2.398660468618778  
H   -0.4394277563850273   -0.4337248383533181   -2.9059581896470448 
H    0.8796556633570338    0.28189727782228324  -2.672989013836286  
O   -2.243820939644574    -0.11863093728253937  -2.0862461470023654 
H   -2.4536479616572153    0.6085254772198545   -2.6854757416481316 
H   -3.0349313941082596   -0.6712751817416183   -2.1105056878577524 
O   -1.990979623123813     1.2425777167498997   -4.688426080171206  
H   -1.4008176356634587    1.153271372865053    -3.929747529718667  
H   -2.558006784203995     1.9870094215139784   -4.451441749555452  

16
energy 0.0, nre 0.0, age 0
O   -2.3522045463500536   -0.2881989468672451   -4.112174253429617  
H   -1.4811705920214049    0.097999340688534    -3.9572204844739023 
H   -2.9296652641774057    0.4794444225514351   -4.207687153981613  
Ag  -1.5177064396781486    1.9895310933895676   -0.01881270494865106
O    1.777422809163141    -1.7560433003005511    0.017349875338524834
H    1.9974662015061329   -2.6391228138266847    0.3392371470574225 
H    2.5613042240167356   -1.2334139138843732    0.22770288653488535
O   -0.04585854313804516   0.28711649928047644  -2.398660468618778  
H   -0.4394277563850273   -0.4337248383533181   -2.9059581896470448 
H    0.8796556633570338    0.28189727782228324  -2.672989013836286  
O   -2.243820939644574    -0.11863093728253937  -2.0862461470023654 
H   -2.4536479616572153    0.6085254772198545   -2.6854757416481316 
H   -3.0349313941082596   -0.6712751817416183   -2.1105056878577524 
O   -1.990979623123813     1.2425777167498997   -4.688426080171206  
H   -1.4008176356634587    1.153271372865053    -3.929747529718667  
H   -2.558006784203995     1.9870094215139784   -4.451441749555452  

16
energy 0.0, nre 0.0, age 0
O   -2.824178883143612     0.5481692879755844    2.4329053501363695 
H   -2.7597243946452332    1.311758616327325     1.8458475216750245 
H   -3.2523882284020247    0.9015828333018581    3.222586019794223  
Ag  -0.2773938392958293    3.701493679491107     1.4855936083979504 
O   -2.9533054383594464    2.894116933080291     4.615997059580154  
H   -3.5671276972972805    3.6318521542571705    4.720059133774145  
H   -2.1465028760591176    3.311482699237945     4.289293248578111  
O   -3.1342239801314964    5.174957197184738     2.1857972556488665 
H   -3.820728993914117     4.497259037099689     2.149797154445351  
H   -2.3202015577954507    4.686192772255966     2.0116227159589233 
O   -0.8768836457291583    4.320403400196882     3.5774614101423787 
H    0.08649500662996723   4.376917162855202     3.6012879547285004 
H   -1.0512679648423504    3.3710535760246563    3.5910613369654403 
O   -2.965143990103257     3.622133532027747     2.3996856996825824 
H   -3.7989093562838345    3.206293027254252     2.652216739686563  
H   -2.4917388370774116    2.921964094009305     1.9333057509588893 

16
energy 0.0, nre 0.0, age 0
O    2.9989505130191083    2.5765127467848163   -3.5583076666745184 
H    3.063405001517487     3.340102075136557    -4.145365495135863  
H    2.5707411677606955    2.92992629211109     -2.768626997016665  
Ag  -0.2773938392958293    3.701493679491107     1.4855936083979504 
O   -2.9533054383594464    2.894116933080291     4.615997059580154  
H   -3.5671276972972805    3.6318521542571705    4.720059133774145  
H   -2.1465028760591176    3.311482699237945     4.289293248578111  
O   -3.1342239801314964    5.174957197184738     2.1857972556488665 
H   -3.820728993914117     4.497259037099689     2.149797154445351  
H   -2.3202015577954507    4.686192772255966     2.0116227159589233 
O   -0.8768836457291583    4.320403400196882     3.5774614101423787 
H    0.08649500662996723   4.376917162855202     3.6012879547285004 
H   -1.0512679648423504    3.3710535760246563    3.5910613369654403 
O   -2.965143990103257     3.622133532027747     2.3996856996825824 
H   -3.7989093562838345    3.206293027254252     2.652216739686563  
H   -2.4917388370774116    2.921964094009305     1.9333057509588893 

16
energy 0.0, nre 0.0, age 0
O    3.567736781348225     1.9436293954436783    3.093263128593591  
H    3.8257528185769467    2.5826662390049044    3.7692213924842637 
H    3.967561706102508     2.2899935074795286    2.2857782254177805 
O    0.827043512040051     2.881268097164618     2.3596963475917656 
H    1.4548262956149989    3.423641269452406     1.8661580450788082 
H    1.2448489329831338    2.775617471820655     3.223488286089112  
O    1.246628842791365    -0.12141335798048747   3.773710234479471  
H    0.45835649874755346   0.2216430870934929    3.334621491140635  
H    1.4562499026206217    0.5549036747920828    4.4298460587382635 
O    2.2139787094737233    0.2914205537908382    1.4944261724740022 
H    1.690975084098443     0.9522259552186481    1.9652375643350577 
H    1.6171691260578855   -0.4637846937522164    1.4213283432008443 
Ag   2.2133774766304812    3.558709186138323     3.2414719581694094 
O    3.9264835997104246    2.1240267516368845    4.883461101878048  
H    3.8251187918024554    1.1652449277345382    4.931653708056493  
H    3.027900782051583     2.4558751118221176    5.002983162890514  

16
energy 0.0, nre 0.0, age 0
O    3.567736781348225     1.9436293954436783    3.093263128593591  
H    3.8257528185769467    2.5826662390049044    3.7692213924842637 
H    3.967561706102508     2.2899935074795286    2.2857782254177805 
O    0.827043512040051     2.881268097164618     2.3596963475917656 
H    1.4548262956149989    3.423641269452406     1.8661580450788082 
H    1.2448489329831338    2.775617471820655     3.223488286089112  
O    0.8929445906761158    0.2350370001886024   -1.532300516381877  
H    0.10467224663230423   0.5780934452625828   -1.9713892597207128 
H    1.1025656505053725    0.9113540329611727   -0.8761646921230843 
O    2.2139787094737233    0.2914205537908382    1.4944261724740022 
H    1.690975084098443     0.9522259552186481    1.9652375643350577 
H    1.6171691260578855   -0.4637846937522164    1.4213283432008443 
Ag   2.2133774766304812    3.558709186138323     3.2414719581694094 
O    3.9264835997104246    2.1240267516368845    4.883461101878048  
H    3.8251187918024554    1.1652449277345382    4.931653708056493  
H    3.027900782051583     2.4558751118221176    5.002983162890514  

16
energy 0.0, nre 0.0, age 0
O    0.745814588537081    -2.203965844935318    -2.0076057925152453 
H    0.5203548262039381   -1.8020196621155955   -2.855819856949063  
H    1.6924383785685981   -2.0368441466178346   -1.919097739119823  
O    1.0897326189188103    0.9851000778952005    0.7387546936971381 
H    0.13939941905192654   0.848212623644611     0.6388118524449404 
H    1.2494735788562377    1.8229699318540673    0.2867404561302034 
O    2.558418916256195    -1.335186393050293     0.7829817653100561 
H    1.6939803990887898   -1.755103431173936     0.6920110637139634 
H    2.687451158762835    -0.8902674540342683   -0.0639289475260505 
O   -0.018888379298648006  -1.3766335095287776   -1.4562874543263404 
H    0.33877545296200956  -1.3981935564444854   -0.5599216334208283 
H   -0.8547275850635836   -1.853696559363765    -1.3811635166873835 
Ag   2.194530099962299    -0.6776407581559987    0.9022752938620036 
O   -0.8224263221826735   -0.14909090394460955  -0.30222731409242387
H    0.09310583621238394   0.08733970332273122  -0.1079044582321731 
H   -0.911675783920102    -1.0387222130919627    0.06171032449741265

16
energy 0.0, nre 0.0, age 0
O    0.745814588537081    -2.203965844935318    -2.0076057925152453 
H    0.5203548262039381   -1.8020196621155955   -2.855819856949063  
H    1.6924383785685981   -2.0368441466178346   -1.919097739119823  
O    1.0897326189188103    0.9851000778952005    0.7387546936971381 
H    0.13939941905192654   0.848212623644611     0.6388118524449404 
H    1.2494735788562377    1.8229699318540673    0.2867404561302034 
O    2.558418916256195    -1.335186393050293     0.7829817653100561 
H    1.6939803990887898   -1.755103431173936     0.6920110637139634 
H    2.687451158762835    -0.8902674540342683   -0.0639289475260505 
O   -0.018888379298648006  -1.3766335095287776   -1.4562874543263404 
H    0.33877545296200956  -1.3981935564444854   -0.5599216334208283 
H   -0.8547275850635836   -1.853696559363765    -1.3811635166873835 
Ag   2.194530099962299    -0.6776407581559987    0.9022752938620036 
O    2.6268453031246546    0.07029175231350315   1.414129050029966  
H    3.542377461519712     0.30672235958084393   1.6084519058902167 
H    2.537595841387226    -0.81933955683385      1.7780666886198024 

16
energy 0.0, nre 0.0, age 0
O   -4.756511678902015     4.091204017338234    -1.2854838971279579 
H   -4.497573954106073     3.380064011534712    -0.6862418056146304 
H   -4.741529844878532     3.674322342297622    -2.156026917938892  
O   -1.7230003784190717    2.813799123307125    -4.553389826759087  
H   -2.1085863941314593    3.646475080165371    -4.253666432985344  
H   -1.6233879949398724    2.3017555690135056   -3.741140659950066  
O   -2.3096714997886902    2.1773343609673708   -3.4072394179847487 
H   -3.190043827451591     2.4645446838917517   -3.6798467042209726 
H   -2.4804150628138397    1.394801643869564    -2.8683988851969846 
O   -3.5052659485891122    2.8390532096612295   -0.030699793326646407
H   -3.9118067530000245    3.6988845378922344   -0.19585002420578856
H   -2.5925332824044918    2.9572669699290763   -0.3219119571880662 
O   -4.884804268661627     2.598820024860501    -2.4526230262519797 
H   -4.111364881763045     2.718939201818011    -1.8876249417074429 
H   -5.431262995553122     1.971565107472216    -1.9629353034792492 
Ag  -2.689190245667466     2.3230813990298085   -2.493268118143491  

16
energy 0.0, nre 0.0, age 0
O    2.2670686035449563    1.2102663550871902   -0.20346541451957467
H    2.526006328340898     0.4991263492836677    0.39577667699375274
H    2.282050437568439     0.7933846800465778   -1.0740084353305086 
O   -1.7230003784190717    2.813799123307125    -4.553389826759087  
H   -2.1085863941314593    3.646475080165371    -4.253666432985344  
H   -1.6233879949398724    2.3017555690135056   -3.741140659950066  
O   -2.3096714997886902    2.1773343609673708   -3.4072394179847487 
H   -3.190043827451591     2.4645446838917517   -3.6798467042209726 
H   -2.4804150628138397    1.394801643869564    -2.8683988851969846 
O   -3.5052659485891122    2.8390532096612295   -0.030699793326646407
H   -3.9118067530000245    3.6988845378922344   -0.19585002420578856
H   -2.5925332824044918    2.9572669699290763   -0.3219119571880662 
O   -4.884804268661627     2.598820024860501    -2.4526230262519797 
H   -4.111364881763045     2.718939201818011    -1.8876249417074429 
H   -5.431262995553122     1.971565107472216    -1.9629353034792492 
Ag  -2.689190245667466     2.3230813990298085   -2.493268118143491  

16
energy 0.0, nre 0.0, age 0
O   -3.339278645073661    -0.24606115655195826  -2.700973846154776  
H   -2.9112141687627746    0.6177053196785325   -2.650692477050027  
H   -4.2793285703572606   -0.03329269562011483  -2.7547851593239714 
O   -1.2810321484187899   -1.8430430488159877   -2.530866026040414  
H   -2.1906904437549186   -1.836072348286407    -2.8538724230022927 
H   -0.8837270365792051   -2.5990188881798573   -2.980876154617791  
O   -1.0567840818565002    0.3602456856450815   -1.3298947690777922 
H   -1.492129061660522     0.9538886658608896   -0.7054568634234917 
H   -0.1219131865620709    0.43120664488264504  -1.1000233075748966 
O   -0.996399754412293     1.926881183735592    -5.035094567350639  
H   -1.823565851311188     1.4358925432427236   -5.11625083923404   
H   -0.33545104522354574   1.2394191711063378   -4.885419177150835  
O   -0.09309198500575944  -0.8697492310957483   -2.4345968946274352 
H   -0.8308288358603884   -0.2967049086119036   -2.6779576983287026 
H   -0.4906979893449188   -1.7481686681303379   -2.3882428724580143 
Ag  -2.792651631201985    -0.35811571004157994  -1.549670061945113  

16
energy 0.0, nre 0.0, age 0
O   -3.339278645073661    -0.24606115655195826  -2.700973846154776  
H   -2.9112141687627746    0.6177053196785325   -2.650692477050027  
H   -4.2793285703572606   -0.03329269562011483  -2.7547851593239714 
O   -1.2810321484187899   -1.8430430488159877   -2.530866026040414  
H   -2.1906904437549186   -1.836072348286407    -2.8538724230022927 
H   -0.8837270365792051   -2.5990188881798573   -2.980876154617791  
O   -3.6109630298912125    2.2192866956750503   -2.945252598148133  
H   -4.046308009695235     2.8129296758908584   -2.3208146924938324 
H   -2.676092134596783     2.290247654912614    -2.715381136645237  
O   -0.996399754412293     1.926881183735592    -5.035094567350639  
H   -1.823565851311188     1.4358925432427236   -5.11625083923404   
H   -0.33545104522354574   1.2394191711063378   -4.885419177150835  
O   -0.09309198500575944  -0.8697492310957483   -2.4345968946274352 
H   -0.8308288358603884   -0.2967049086119036   -2.6779576983287026 
H   -0.4906979893449188   -1.7481686681303379   -2.3882428724580143 
Ag  -2.792651631201985    -0.35811571004157994  -1.549670061945113  

