14
energy 0.0, nre 0.0, age 0
O    2.5348590503432398   -0.9376464884749556    0.1504867024848125 
H    2.424325913024547    -1.8373403861653217   -0.18146698921209325
H    2.271308069698552    -1.0011052503934965    1.0769713507952903 
O   -0.705178246924247    -2.9626235271931103   -0.1291873591614474 
H   -0.5190111074760224   -2.1272657035297753    0.31733144229278154
H   -1.6595426843230534   -3.0681180019093706   -0.02959130577176672
O   -1.787220430600267     3.867485688958719     3.047179926526452  
O   -2.127822798418909    -1.485089514314409    -1.0758665546582968 
H   -3.01662180258705     -1.6186175290778089   -1.4280973552437461 
H   -2.0061130582118967   -0.5283614706057744   -1.117316849448457  
O    3.075217327526004    -1.7207229211876127   -2.046860914206154  
H    2.7300687502970824   -2.5572344078974596   -1.7107345545475685 
H    2.3196217671145622   -1.122432024598716    -1.9922414161914965 
O   -2.3637614614371243   -0.9064786967283709   -3.851424003280492  

14
energy 0.0, nre 0.0, age 0
O    2.5348590503432398   -0.9376464884749556    0.1504867024848125 
H    2.424325913024547    -1.8373403861653217   -0.18146698921209325
H    2.271308069698552    -1.0011052503934965    1.0769713507952903 
O    1.016842100234574    -3.6461665760793167    0.3579121463874695 
H    1.2030092396827987   -2.8108087524159817    0.8044309478416984 
H    0.06247766283576772  -3.751661050795577     0.4575081997771502 
O   -1.787220430600267     3.867485688958719     3.047179926526452  
O   -2.127822798418909    -1.485089514314409    -1.0758665546582968 
H   -3.01662180258705     -1.6186175290778089   -1.4280973552437461 
H   -2.0061130582118967   -0.5283614706057744   -1.117316849448457  
O    3.075217327526004    -1.7207229211876127   -2.046860914206154  
H    2.7300687502970824   -2.5572344078974596   -1.7107345545475685 
H    2.3196217671145622   -1.122432024598716    -1.9922414161914965 
O   -2.3637614614371243   -0.9064786967283709   -3.851424003280492  

14
energy 0.0, nre 0.0, age 0
O   -1.3139452277413346    4.712818071683914     4.016459171056859  
H   -0.6257957261808669    4.539302553344837     3.3620872845767003 
H   -1.3142275054825625    3.9184956231661965    4.565013366663906  
O    2.475462047531696    -2.2092735782357753    2.8681956878774475 
O   -1.4281101788001163    0.5151999529215002    1.699146123347304  
H   -0.5644437475955728    0.2025640914735023    1.9961293739946697 
H   -1.2806813476780228    1.4501390140432755    1.509373551143872  
O   -0.6617270755794866   -0.5080255842917554   -2.4252293992987566 
O    0.4130062693911976   -1.3732731384002888   -0.6964266726167838 
H    1.3034397960092519   -1.2668101185289486   -0.3391400964731936 
H    0.43921467462842795  -0.8826866254105232   -1.5273887236067574 
O    2.1565878402914342   -0.6871913006947366   -1.108408328717792  
H    2.8500568192803923   -0.24932239140833712  -1.6175561764775084 
H    1.359401492634579    -0.19131165736263078  -1.3330352279448154 

14
energy 0.0, nre 0.0, age 0
O    2.0139208760990313    0.42911261242727505  -0.545760889828034  
H    2.702070377659499     0.25559709408819753  -1.2001327763081924 
H    2.0136385983578036   -0.3652098360904428    0.0027933057790132665
O    2.475462047531696    -2.2092735782357753    2.8681956878774475 
O   -1.4281101788001163    0.5151999529215002    1.699146123347304  
H   -0.5644437475955728    0.2025640914735023    1.9961293739946697 
H   -1.2806813476780228    1.4501390140432755    1.509373551143872  
O   -0.6617270755794866   -0.5080255842917554   -2.4252293992987566 
O    0.4130062693911976   -1.3732731384002888   -0.6964266726167838 
H    1.3034397960092519   -1.2668101185289486   -0.3391400964731936 
H    0.43921467462842795  -0.8826866254105232   -1.5273887236067574 
O    2.1565878402914342   -0.6871913006947366   -1.108408328717792  
H    2.8500568192803923   -0.24932239140833712  -1.6175561764775084 
H    1.359401492634579    -0.19131165736263078  -1.3330352279448154 

14
energy 0.0, nre 0.0, age 0
O   -1.3678815166639686    0.24726200287902933   4.472055089860579  
H   -1.6804011912983343   -0.13233607915476386   3.641334507173056  
H   -2.042559786540292     0.9012048602857196    4.693477556700475  
O   -2.555152264582947     1.7533505982692272    2.9445091905492626 
O   -2.8383720313253313    4.307044099954444     0.3613267183877634 
H   -3.4693359510848394    4.028467884030209    -0.31405447864177405
H   -2.0268063593825585    3.842011089542078     0.12265247015622932
O    0.9444633079949352    3.5436295538668743   -1.7833226683519348 
O    4.592617000984512     1.042793360467781     1.980067179489177  
H    4.06526330865834      0.24186689406063222   1.869275410767346  
H    3.9333537022982945    1.7337145538903205    2.1209917866482573 
O   -0.2078741879229915    1.3854629679672257   -2.9242022050522105 
H    0.1372396212774598    0.5638952842813032   -3.2953934458433993 
H   -0.475431272073346     1.8931658431308265   -3.7004179834859996 

14
energy 0.0, nre 0.0, age 0
O    2.212627061321869    -1.7639146946383215   -0.09211374985851517
H    1.9001073866875031   -2.1435127766721145   -0.9228343325460377 
H    1.5379487914455456   -1.1099718372316314    0.1293087169813809 
O   -2.555152264582947     1.7533505982692272    2.9445091905492626 
O   -2.8383720313253313    4.307044099954444     0.3613267183877634 
H   -3.4693359510848394    4.028467884030209    -0.31405447864177405
H   -2.0268063593825585    3.842011089542078     0.12265247015622932
O    0.9444633079949352    3.5436295538668743   -1.7833226683519348 
O    4.592617000984512     1.042793360467781     1.980067179489177  
H    4.06526330865834      0.24186689406063222   1.869275410767346  
H    3.9333537022982945    1.7337145538903205    2.1209917866482573 
O   -0.2078741879229915    1.3854629679672257   -2.9242022050522105 
H    0.1372396212774598    0.5638952842813032   -3.2953934458433993 
H   -0.475431272073346     1.8931658431308265   -3.7004179834859996 

14
energy 0.0, nre 0.0, age 0
O    2.729835811104373    -4.381704955258352    -5.5034947416599    
H    2.0694536496477216   -4.511625925001146    -4.8114861579928085 
H    3.45613522572425     -4.959863762712643    -5.238765651637937  
O    1.8939428692316813   -2.0517840650415113   -0.6059445712605782 
H    1.7164122087951976   -2.993598670148145    -0.7213917523903981 
H    1.3317315485993333   -1.6297175940791475   -1.2674869073662935 
O   -1.3172714885056584   -2.802003440939405    -2.572707921256688  
H   -1.7459625178535716   -3.0383579571560912   -1.7407100357794456 
H   -1.3517713459306737   -1.8373404860302491   -2.5824588536013295 
O    1.767483679781099    -0.25053367472859445   0.3392343185844262 
H    0.8117014010137721   -0.309435255104376     0.4611801132703075 
H    2.1229270960589295   -0.44814701185329664   1.214716405341879  
O   -2.8994631692337336    0.9055480398984086   -2.94360051758777   
O    3.6271254407728417   -0.5120457790864084   -3.195027192338806  

14
energy 0.0, nre 0.0, age 0
O    2.729835811104373    -4.381704955258352    -5.5034947416599    
H    2.0694536496477216   -4.511625925001146    -4.8114861579928085 
H    3.45613522572425     -4.959863762712643    -5.238765651637937  
O    1.8939428692316813   -2.0517840650415113   -0.6059445712605782 
H    1.7164122087951976   -2.993598670148145    -0.7213917523903981 
H    1.3317315485993333   -1.6297175940791475   -1.2674869073662935 
O   -1.3172714885056584   -2.802003440939405    -2.572707921256688  
H   -1.7459625178535716   -3.0383579571560912   -1.7407100357794456 
H   -1.3517713459306737   -1.8373404860302491   -2.5824588536013295 
O    0.10976493153258837   1.6241415444027136   -3.8524692172773585 
H   -0.8460173472347386    1.565239964026932    -3.730523422591477  
H    0.46520834781041875   1.4265282072780114   -2.9769871305199054 
O   -2.8994631692337336    0.9055480398984086   -2.94360051758777   
O    3.6271254407728417   -0.5120457790864084   -3.195027192338806  

14
energy 0.0, nre 0.0, age 0
O   -3.433611189375621    -0.3349008698403839   -3.723056969265554  
H   -3.983240907974911    -0.15541778079836366  -2.9500414903788768 
H   -3.8066427133404956   -1.1479892220917276   -4.085816877441248  
O   -5.378249648962569     2.1910803221375748    1.2079877172877416 
H   -5.445516013765012     3.150948491397629     1.1306037963117628 
H   -4.606118701409623     2.0601109640270696    1.7723641559216656 
O    1.9967129192801476    1.5801028346945776    2.3290565534779812 
H    2.0229019061945688    2.333389761549555     1.725953842315297  
H    1.0740262574826875    1.5436580747928104    2.6104478131765765 
O   -2.63490343678085     -3.6602855898125064   -3.741438213931933  
O    3.2476518142427953    2.7058777202404714    0.05207677454824866
H    3.68129369407027      2.0687667184273453    0.6333720771667797 
H    2.370895800519221     2.8120872129929912    0.4417925343871345 
O   -2.16575460475336      2.2465934718032914    2.351307004394287  

14
energy 0.0, nre 0.0, age 0
O   -3.433611189375621    -0.3349008698403839   -3.723056969265554  
H   -3.983240907974911    -0.15541778079836366  -2.9500414903788768 
H   -3.8066427133404956   -1.1479892220917276   -4.085816877441248  
O   -5.378249648962569     2.1910803221375748    1.2079877172877416 
H   -5.445516013765012     3.150948491397629     1.1306037963117628 
H   -4.606118701409623     2.0601109640270696    1.7723641559216656 
O    1.9967129192801476    1.5801028346945776    2.3290565534779812 
H    2.0229019061945688    2.333389761549555     1.725953842315297  
H    1.0740262574826875    1.5436580747928104    2.6104478131765765 
O   -2.63490343678085     -3.6602855898125064   -3.741438213931933  
O    3.2476518142427953    2.7058777202404714    0.05207677454824866
H    3.68129369407027      2.0687667184273453    0.6333720771667797 
H    2.370895800519221     2.8120872129929912    0.4417925343871345 
O    0.4429038279242006    1.8303968768316299    3.7593187962918746 

14
energy 0.0, nre 0.0, age 0
O   -3.431575340805233    -1.8224735384664323    3.7248202076831993 
H   -4.371508455412144    -1.9869862806647085    3.578802280229906  
H   -3.329324476184991    -0.883676958542233     3.5246560759686494 
O   -0.21613076710562762   2.8231756962637995    2.227460003186997  
O    3.909553776614074    -3.002091762837219     1.6643460227043796 
H    4.217297446653921    -3.427887546678967     2.474192749826862  
H    4.054828644158995    -2.062243166254602     1.8299955496565907 
O   -3.723825042095088    -3.2345307350937826   -2.7903809108961797 
O   -1.4514653866536413   -2.6165920276847814   -0.03084304567156515
H   -1.2571200076378561   -1.8491234769497646    0.5214990898802174 
H   -0.5937534950298358   -3.047050863741002    -0.13522426451019154
O   -3.079315619556082     1.1212060490306732    0.5062829430821993 
H   -2.3561172713444103    0.5031699975367008    0.670220509294615  
H   -3.8624279297821267    0.5571831820641204    0.4845285750321344 

14
energy 0.0, nre 0.0, age 0
O   -3.431575340805233    -1.8224735384664323    3.7248202076831993 
H   -4.371508455412144    -1.9869862806647085    3.578802280229906  
H   -3.329324476184991    -0.883676958542233     3.5246560759686494 
O   -0.21613076710562762   2.8231756962637995    2.227460003186997  
O    3.909553776614074    -3.002091762837219     1.6643460227043796 
H    4.217297446653921    -3.427887546678967     2.474192749826862  
H    4.054828644158995    -2.062243166254602     1.8299955496565907 
O   -3.723825042095088    -3.2345307350937826   -2.7903809108961797 
O   -1.4514653866536413   -2.6165920276847814   -0.03084304567156515
H   -1.2571200076378561   -1.8491234769497646    0.5214990898802174 
H   -0.5937534950298358   -3.047050863741002    -0.13522426451019154
O    1.6866403213815873   -1.5791011239171318    3.8676604225146063 
H    2.4098386695932588   -2.197137175411104     4.031597988727022  
H    0.9035280111555424   -2.1431239908836845    3.8459060544645416 

14
energy 0.0, nre 0.0, age 0
O   -3.230809344189997     1.200911786994146     2.024056031298228  
O    2.8833943493826566    0.005776511963726527   2.052337794747144  
H    3.744634023864678    -0.1971450536785202    2.4382769074493966 
H    3.029108472705809     0.8425955288752589    1.5936862226170776 
O   -2.6601941607290804    0.9689099126764977   -2.023833015391904  
H   -1.9379042206042434    1.0673945517785173   -2.65665048960813   
H   -3.3345124227352514    1.5784124038787075   -2.3488892138580733 
O   -1.9692694763242997   -2.6793453135764613    2.5859014017528743 
O    2.3113323454156975    0.22049740604550672  -1.9837201616013733 
H    1.6015795353526214   -0.21844068981171727  -2.4689461234282337 
H    1.868854525206328     0.9607354797860512   -1.5499910869180487 
O   -1.289892065843118    -4.977165394330059     0.28605548486545496
H   -2.248196683881579    -4.966229220230155     0.17032909824504877
H   -1.1630930607220993   -4.637366671431847     1.1806608602321942 

14
energy 0.0, nre 0.0, age 0
O   -3.230809344189997     1.200911786994146     2.024056031298228  
O    2.8833943493826566    0.005776511963726527   2.052337794747144  
H    3.744634023864678    -0.1971450536785202    2.4382769074493966 
H    3.029108472705809     0.8425955288752589    1.5936862226170776 
O   -2.6601941607290804    0.9689099126764977   -2.023833015391904  
H   -1.9379042206042434    1.0673945517785173   -2.65665048960813   
H   -3.3345124227352514    1.5784124038787075   -2.3488892138580733 
O   -1.9692694763242997   -2.6793453135764613    2.5859014017528743 
O    2.3113323454156975    0.22049740604550672  -1.9837201616013733 
H    1.6015795353526214   -0.21844068981171727  -2.4689461234282337 
H    1.868854525206328     0.9607354797860512   -1.5499910869180487 
O   -2.1864605238393167    0.43783175439187083  -0.761539596497193  
H   -3.1447651418777776    0.44876792849177427  -0.8772659831175993 
H   -2.059661518718298     0.7776304772900824    0.13306577886954618

14
energy 0.0, nre 0.0, age 0
O   -2.1465259320717234    0.7561787478753423    2.4574540422189424 
O   -0.8173157716612653   -0.7896168690773353    3.194437791845398  
H   -1.5018973093742582   -0.28604325902131      2.736593194961634  
H   -0.7202302136627692   -1.58567768416447      2.657109669997185  
O    2.536450572885269     0.42896395700909384   4.997896685838141  
H    1.9711440236559452    1.0120506696276355    4.476074562520112  
H    3.2101937614626896    1.0214203877463066    5.354162641188427  
O   -2.5941405568922913    2.211719114041573     4.12066796697347   
H   -2.9438704699894385    1.9497336652471482    3.259905194821325  
H   -1.814614043469224     2.7370928047491976    3.9011666289348916 
O   -1.105353159541111    -3.0027479211053354    0.24334768922460182
O   -3.9921082079673744    0.8278854007678078    3.2056450521844084 
H   -4.456357295441059     1.0406348279740654    4.024833921384461  
H   -3.085755226081711     0.6604360977849983    3.4926031337495345 

14
energy 0.0, nre 0.0, age 0
O   -2.1465259320717234    0.7561787478753423    2.4574540422189424 
O   -0.8173157716612653   -0.7896168690773353    3.194437791845398  
H   -1.5018973093742582   -0.28604325902131      2.736593194961634  
H   -0.7202302136627692   -1.58567768416447      2.657109669997185  
O    2.536450572885269     0.42896395700909384   4.997896685838141  
H    1.9711440236559452    1.0120506696276355    4.476074562520112  
H    3.2101937614626896    1.0214203877463066    5.354162641188427  
O   -1.5179253160611346   -2.2362244929493666    1.924982891950867  
H   -1.8676552291582817   -2.4982099417437915    1.0642201197987218 
H   -0.7383988026380672   -1.7108508022417421    1.7054815539122883 
O   -1.105353159541111    -3.0027479211053354    0.24334768922460182
O   -3.9921082079673744    0.8278854007678078    3.2056450521844084 
H   -4.456357295441059     1.0406348279740654    4.024833921384461  
H   -3.085755226081711     0.6604360977849983    3.4926031337495345 

14
energy 0.0, nre 0.0, age 0
O    1.7044070548407462    1.6715585369189343   -1.85605786156105   
H    2.504128440906103     1.1784839525602533   -2.077830484639776  
H    1.9512534610057366    2.1643281196935966   -1.0635271508163409 
O   -0.5920131645384836   -1.768040114738904     0.2553300789385884 
H   -0.5763595249199538   -2.7275693313997174    0.35982210427535066
H    0.34157930418864085  -1.5274790003016894    0.20638735757250148
O   -2.425650927607955    -0.7245005768854993   -3.4374419674157384 
O   -1.9498586365637827    1.4834159179396729   -0.343596799758193  
H   -1.9661300364686543    2.281220065434608    -0.886831299033612  
H   -2.2315338859784637    1.79264496297135      0.5264011249485123 
O   -1.1966243877808633    2.9387152501318816   -3.5455386811107763 
O   -0.2149267675392994   -1.4784338884638666   -1.2685518072212516 
H   -0.14558346015696721  -0.6324434532607678   -0.8088218574853758 
H    0.6682248155285839   -1.858750557388969    -1.1833317973620299 

14
energy 0.0, nre 0.0, age 0
O   -1.414430024859769    -1.1561793564323608    1.606186227822207  
H   -0.6147086387944123   -1.6492539407910418    1.384413604743481  
H   -1.1675836186947786   -0.6634097736576985    2.398716938566916  
O   -0.5920131645384836   -1.768040114738904     0.2553300789385884 
H   -0.5763595249199538   -2.7275693313997174    0.35982210427535066
H    0.34157930418864085  -1.5274790003016894    0.20638735757250148
O   -2.425650927607955    -0.7245005768854993   -3.4374419674157384 
O   -1.9498586365637827    1.4834159179396729   -0.343596799758193  
H   -1.9661300364686543    2.281220065434608    -0.886831299033612  
H   -2.2315338859784637    1.79264496297135      0.5264011249485123 
O   -1.1966243877808633    2.9387152501318816   -3.5455386811107763 
O   -0.2149267675392994   -1.4784338884638666   -1.2685518072212516 
H   -0.14558346015696721  -0.6324434532607678   -0.8088218574853758 
H    0.6682248155285839   -1.858750557388969    -1.1833317973620299 

14
energy 0.0, nre 0.0, age 0
O    3.301355649761097    -2.7074187486082657   -4.688052018625254  
H    2.864451262630508    -3.5659982260963266   -4.749823976343723  
H    4.059575259565515    -2.8766963276448556   -4.11507028945621   
O    1.5422653936832007   -0.8763235275490258   -1.554108600974497  
H    2.4082227932909483   -0.8198983088307623   -1.9769488949096707 
H    1.0109134871218382   -1.3769716304622126   -2.185675355847671  
O    1.9062880531116722    0.32939531984973625  -1.6270138467630244 
H    2.7028670366799075    0.7954736110501937   -1.344006979660725  
H    1.2144355918019527    0.999807465746994    -1.5657956809042088 
O    1.164957581494728     3.1078189415407076   -0.8353847910255414 
H    2.0716635422023626    2.8905846342934822   -0.5852778259284794 
H    0.8042194170792549    2.2668995017969062   -1.1429273246906035 
O   -1.77155317399912      2.4234361524387102    1.5246432015449614 
O    3.3090058914470184   -2.519860529146656     1.1272699716555081 

14
energy 0.0, nre 0.0, age 0
O    3.301355649761097    -2.7074187486082657   -4.688052018625254  
H    2.864451262630508    -3.5659982260963266   -4.749823976343723  
H    4.059575259565515    -2.8766963276448556   -4.11507028945621   
O    1.5422653936832007   -0.8763235275490258   -1.554108600974497  
H    2.4082227932909483   -0.8198983088307623   -1.9769488949096707 
H    1.0109134871218382   -1.3769716304622126   -2.185675355847671  
O    1.9062880531116722    0.32939531984973625  -1.6270138467630244 
H    2.7028670366799075    0.7954736110501937   -1.344006979660725  
H    1.2144355918019527    0.999807465746994    -1.5657956809042088 
O    1.164957581494728     3.1078189415407076   -0.8353847910255414 
H    2.0716635422023626    2.8905846342934822   -0.5852778259284794 
H    0.8042194170792549    2.2668995017969062   -1.1429273246906035 
O    2.943119690664182    -0.18242386571195013   0.5699045739243322 
O    3.3090058914470184   -2.519860529146656     1.1272699716555081 

