12
energy 0.0, nre 0.0, age 0
C    1.7608204759226362    0.5889539397491133    1.3157478298154297 
C   -1.6370679619616029   -1.787220430600267     3.867485688958719  
H    3.0044399964769486   -1.8834548771045547    3.2150185962433193 
C    2.430934872109975     0.3350857032799679    2.2095146896734725 
C    0.9694610711719136   -1.3339197996709817    1.6390086146755394 
H    2.9445091905492626   -3.1472539728525932    2.399816011524427  
H    0.5673131482275844   -3.5431707299052455    0.7782988620043563 
C    0.9172053942826599    0.8502162137480473    1.7841802425927344 
H    1.9538684794656218   -3.299590871256        0.9866246827539715 
H    0.4293026421780519    0.70529268328435      1.3697426717450014 
C    0.6843333415913779   -2.9317198304249166    3.968886109165478  
H    1.806118846257169    -0.5987794740821011    1.636370816937652  

12
energy 0.0, nre 0.0, age 0
C    1.7608204759226362    0.5889539397491133    1.3157478298154297 
C   -1.6370679619616029   -1.787220430600267     3.867485688958719  
H    3.0044399964769486   -1.8834548771045547    3.2150185962433193 
C    2.430934872109975     0.3350857032799679    2.2095146896734725 
C    0.9694610711719136   -1.3339197996709817    1.6390086146755394 
H    2.9445091905492626   -3.1472539728525932    2.399816011524427  
H    0.5673131482275844   -3.5431707299052455    0.7782988620043563 
C    0.9172053942826599    0.8502162137480473    1.7841802425927344 
H    1.9538684794656218   -3.299590871256        0.9866246827539715 
H    0.4293026421780519    0.70529268328435      1.3697426717450014 
C    1.806118846257169    -0.5987794740821011    1.636370816937652  
H    0.6843333415913779   -2.9317198304249166    3.968886109165478  

12
energy 0.0, nre 0.0, age 0
C    3.4928561608053963   -0.10185488336547088  -3.723825042095088  
C    2.6743589385608235    1.4745582241699413   -0.2904978439912176 
H   -0.06390840030076461  -1.026495882102762    -2.9841881135652057 
H    0.4170903390810974   -1.5151699151611222   -0.29941219093900706
C    1.6716300316448613    1.436302063959932    -3.3577497929871196 
C    1.9092560648370087   -2.8299379427409486   -2.3978351436691616 
H    1.7218712783917542   -2.425650927607955    -0.7245005768854993 
H    3.649954141916929     0.16827886007268145  -0.01640048676555317
H    0.6517849195807184    1.2030092396827987   -2.8108087524159817 
C    0.4357109846070646   -2.302776884911683    -2.5005169093958033 
H    1.5379487914455456   -1.1099718372316314    0.1293087169813809 
C    2.4320357211808696    0.4613292450560733   -2.396841993881911  

12
energy 0.0, nre 0.0, age 0
C    3.4928561608053963   -0.10185488336547088  -3.723825042095088  
C    2.6743589385608235    1.4745582241699413   -0.2904978439912176 
H   -0.06390840030076461  -1.026495882102762    -2.9841881135652057 
H    1.9092560648370087   -2.8299379427409486   -2.3978351436691616 
C    1.6716300316448613    1.436302063959932    -3.3577497929871196 
C    0.4170903390810974   -1.5151699151611222   -0.29941219093900706
H    1.7218712783917542   -2.425650927607955    -0.7245005768854993 
H    3.649954141916929     0.16827886007268145  -0.01640048676555317
H    0.6517849195807184    1.2030092396827987   -2.8108087524159817 
C    0.4357109846070646   -2.302776884911683    -2.5005169093958033 
H    1.5379487914455456   -1.1099718372316314    0.1293087169813809 
C    2.4320357211808696    0.4613292450560733   -2.396841993881911  

12
energy 0.0, nre 0.0, age 0
C   -0.8460173472347385    1.565239964026932    -3.730523422591477  
C    2.7377596115495875    3.3813517958453643   -1.161741632949644  
C   -0.4526128201440889    2.2808135080013985   -0.27453942656082386
C    1.850268699952001     0.1283453577908693   -0.6958606663168325 
H   -1.2085564099363975    3.0339484028793455   -2.20774838715702   
H   -1.6605526706502705    2.948643787296537    -1.7309040591529596 
H    0.9993130571128619    1.306017589626637    -1.4617125138534055 
H   -1.5437336492056852    3.575304830464285    -1.239326107362384  
H   -0.3568012908639009    1.4039676582762057   -0.5893446269849392 
C   -0.4606202772229757    1.3531538810327053    0.9810082741069683 
C    1.049241231345011     1.9839901663381614    0.4208947631146085 
H    0.7182391490745168    1.7800696782329464   -3.1148254051211524 

12
energy 0.0, nre 0.0, age 0
C   -0.8460173472347385    1.565239964026932    -3.730523422591477  
C    2.7377596115495875    3.3813517958453643   -1.161741632949644  
C   -1.5437336492056852    3.575304830464285    -1.239326107362384  
C    1.850268699952001     0.1283453577908693   -0.6958606663168325 
H   -1.2085564099363975    3.0339484028793455   -2.20774838715702   
H   -1.6605526706502705    2.948643787296537    -1.7309040591529596 
H    0.9993130571128619    1.306017589626637    -1.4617125138534055 
H   -0.4526128201440889    2.2808135080013985   -0.27453942656082386
H   -0.3568012908639009    1.4039676582762057   -0.5893446269849392 
C   -0.4606202772229757    1.3531538810327053    0.9810082741069683 
C    1.049241231345011     1.9839901663381614    0.4208947631146085 
H    0.7182391490745168    1.7800696782329464   -3.1148254051211524 

12
energy 0.0, nre 0.0, age 0
H    2.3251608596119926    3.5645733552699674    3.8982132689779805 
C    2.112776572513475     1.539810750669056     2.7294603574884126 
C    3.6235416550785704    3.953090021022531     2.8964194557160985 
C    1.9961172723852068    1.9860598736299986    1.304112409475727  
C    2.7710065434053677    2.335720664802852     0.13808648342071717
H    3.805841205163011     2.6510512171846354    2.659432004306436  
H    2.9520368101072956    0.8243020938514762    3.7870345837468644 
C    1.981557349951773     3.944006643168522     1.5929439573150832 
C    1.4438433894395208    3.3456560631294394    0.975803834096209  
H    1.9864695450897436    2.0019490191847185   -0.831435059842514  
H    2.925702099061212     2.1372047064762763    2.219130125225222  
H    3.230946244709666     3.774534366353765     2.378294631603551  

12
energy 0.0, nre 0.0, age 0
H    2.112776572513475     1.539810750669056     2.7294603574884126 
C    2.3251608596119926    3.5645733552699674    3.8982132689779805 
C    3.6235416550785704    3.953090021022531     2.8964194557160985 
C    1.9961172723852068    1.9860598736299986    1.304112409475727  
C    2.7710065434053677    2.335720664802852     0.13808648342071717
H    3.805841205163011     2.6510512171846354    2.659432004306436  
H    2.9520368101072956    0.8243020938514762    3.7870345837468644 
C    1.981557349951773     3.944006643168522     1.5929439573150832 
C    1.4438433894395208    3.3456560631294394    0.975803834096209  
H    1.9864695450897436    2.0019490191847185   -0.831435059842514  
H    2.925702099061212     2.1372047064762763    2.219130125225222  
H    3.230946244709666     3.774534366353765     2.378294631603551  

12
energy 0.0, nre 0.0, age 0
H   -2.7955276777726947    3.304396319360282     3.50985945879572   
H   -0.012567145113935752   3.0991729237671057    0.6097880752873168 
C   -1.580725256055862     0.7379651409764962    1.561302115104568  
C   -2.8605891794862526    3.8865620049561214    2.887659090054166  
H   -1.264920336601489     0.4196615689408949    0.8790025582108907 
C   -3.7602563859488596    0.6895812257127023   -0.07271023459982828
H   -2.378468793288156     3.699512660438079     1.6392306886464096 
H   -1.500031715150107     0.48609827780912074   0.05785132019907646
C    0.4116188549768829    2.004326766010199     2.2684049363661885 
H   -0.7406221728140379    2.4655310449765375   -0.05336984470786721
C   -3.877949211773559     1.049348880213544     2.446101411474321  
C   -1.7501442792201596    3.5769029124876406   -1.1739072098270515 

12
energy 0.0, nre 0.0, age 0
H   -2.7955276777726947    3.304396319360282     3.50985945879572   
H   -0.012567145113935752   3.0991729237671057    0.6097880752873168 
C   -1.580725256055862     0.7379651409764962    1.561302115104568  
C   -2.8605891794862526    3.8865620049561214    2.887659090054166  
H   -1.264920336601489     0.4196615689408949    0.8790025582108907 
C   -3.7602563859488596    0.6895812257127023   -0.07271023459982828
H   -2.378468793288156     3.699512660438079     1.6392306886464096 
H   -1.500031715150107     0.48609827780912074   0.05785132019907646
C   -0.7406221728140379    2.4655310449765375   -0.05336984470786721
H    0.4116188549768829    2.004326766010199     2.2684049363661885 
C   -3.877949211773559     1.049348880213544     2.446101411474321  
C   -1.7501442792201596    3.5769029124876406   -1.1739072098270515 

12
energy 0.0, nre 0.0, age 0
C   -2.6482813656143245    3.0553851429216703   -1.4975183091027189 
H   -0.09602466753013239   2.560282556048813    -1.5177064396781486 
H   -0.32942162891573634   0.7777074190686015    0.20757827965108255
H   -1.1898786285270804    2.4604412082564275    1.5429002435382149 
C   -2.4043277134566523   -0.15503358856190808   0.545003812696625  
C   -2.616708655713369    -0.2728257082023884    1.6407354777906349 
C   -3.862793880368133     1.5096827152305492    1.5510437158380759 
H    0.8684332123692347    1.948885680558063     0.5296336059801527 
C   -2.820256098275756     2.624035108290582     1.7079046594554068 
H   -2.3476284912386784    3.933970235037952     0.04201844403250288
H   -3.078405123144142     3.471894932966725     1.220848434907916  
C   -3.2727840308982366    1.253593580527581    -0.6795723045303221 

12
energy 0.0, nre 0.0, age 0
C   -2.6482813656143245    3.0553851429216703   -1.4975183091027189 
H   -0.09602466753013239   2.560282556048813    -1.5177064396781486 
H   -0.32942162891573634   0.7777074190686015    0.20757827965108255
H   -1.1898786285270804    2.4604412082564275    1.5429002435382149 
C   -2.4043277134566523   -0.15503358856190808   0.545003812696625  
C   -2.616708655713369    -0.2728257082023884    1.6407354777906349 
C   -2.3476284912386784    3.933970235037952     0.04201844403250288
H    0.8684332123692347    1.948885680558063     0.5296336059801527 
C   -2.820256098275756     2.624035108290582     1.7079046594554068 
H   -3.862793880368133     1.5096827152305492    1.5510437158380759 
H   -3.078405123144142     3.471894932966725     1.220848434907916  
C   -3.2727840308982366    1.253593580527581    -0.6795723045303221 

12
energy 0.0, nre 0.0, age 0
H   -1.9709465273817512    0.44053649787725124  -0.2621044250461031 
C   -0.579671820490054     1.4713851624065981    1.4396660274466972 
H    1.0534419943632614   -2.2353512378087004    0.16377490978897669
C   -2.575641260384794    -2.7777220917375507    0.5146124327682822 
H   -1.0463969477975166   -0.8620401877711021   -1.5808882997106624 
C    0.39672227830014695  -0.1352893169222238    1.7646774489007617 
H    0.5410558687343716   -0.7272801801090285    2.3142329266014157 
C   -1.0578877614230455   -1.447648149044233    -1.9846585603735853 
H    0.20641261049627602  -0.05567216601110747   2.365834821755941  
C    1.3377232392104998   -1.4333414922960017   -1.4927230791552866 
C   -0.9104617770989982   -2.539564579378456    -1.4027366753048716 
H   -1.3550525588287883   -0.20027896756376773  -2.2428091005914483 

12
energy 0.0, nre 0.0, age 0
H   -1.9709465273817512    0.44053649787725124  -0.2621044250461031 
C   -0.579671820490054     1.4713851624065981    1.4396660274466972 
H    1.0534419943632614   -2.2353512378087004    0.16377490978897669
C   -2.575641260384794    -2.7777220917375507    0.5146124327682822 
H   -0.9104617770989982   -2.539564579378456    -1.4027366753048716 
C    0.39672227830014695  -0.1352893169222238    1.7646774489007617 
H    0.5410558687343716   -0.7272801801090285    2.3142329266014157 
C   -1.0578877614230455   -1.447648149044233    -1.9846585603735853 
H    0.20641261049627602  -0.05567216601110747   2.365834821755941  
C    1.3377232392104998   -1.4333414922960017   -1.4927230791552866 
C   -1.0463969477975166   -0.8620401877711021   -1.5808882997106624 
H   -1.3550525588287883   -0.20027896756376773  -2.2428091005914483 

12
energy 0.0, nre 0.0, age 0
C    1.9343761883510817    0.2690145143375595   -1.959109476272439  
C   -0.8093651104786312   -1.9443994379178964   -0.5299750397574474 
H    3.301890786749614    -1.7202412029174319   -1.5987648644774    
H    0.8267661408180276   -1.6017954375781667   -2.645913264871748  
H    2.272519949746708     0.33084314917227076  -0.6150243369884674 
C    2.646352537757968    -3.19155626235073     -0.5717695894010628 
C    1.243948508050381     1.4867540145093292   -1.6005989997966097 
C   -0.26126189944681855   0.35395727152289425  -0.1368044952073415 
H   -0.07642390117402975  -0.9281036565276573   -2.761700402368569  
H   -0.5461113574599628    0.20365774435646422  -2.1965913328911277 
C   -0.49844820048952165  -1.9114916533090698   -3.326300832694317  
H    0.6127219905058041    0.6858499165459344   -0.6740235228046743 

12
energy 0.0, nre 0.0, age 0
C    1.9343761883510817    0.2690145143375595   -1.959109476272439  
C   -0.8093651104786312   -1.9443994379178964   -0.5299750397574474 
H    1.243948508050381     1.4867540145093292   -1.6005989997966097 
H    0.8267661408180276   -1.6017954375781667   -2.645913264871748  
H    2.272519949746708     0.33084314917227076  -0.6150243369884674 
C    2.646352537757968    -3.19155626235073     -0.5717695894010628 
C    3.301890786749614    -1.7202412029174319   -1.5987648644774    
C   -0.26126189944681855   0.35395727152289425  -0.1368044952073415 
H   -0.07642390117402975  -0.9281036565276573   -2.761700402368569  
H   -0.5461113574599628    0.20365774435646422  -2.1965913328911277 
C   -0.49844820048952165  -1.9114916533090698   -3.326300832694317  
H    0.6127219905058041    0.6858499165459344   -0.6740235228046743 

12
energy 0.0, nre 0.0, age 0
C    0.15053332917967222   1.8887561172084721   -1.0737234337626012 
H    3.2844481751129297    1.6240865770698578    2.3469611396091423 
C    0.9390290830785464    2.789588867401128     3.132039823139004  
H    1.7590698212299989    0.1324709486893365    1.6032456453269512 
H    1.5075388738974729    2.833558660342649     2.3148732865924524 
C    0.46234652707820256   1.6793779810014966    0.40320388052517764
H    1.786161641213857     0.834956283315603     3.018327916799235  
C   -0.7662051367955138    2.9130401762356186    1.3947163281526542 
C    1.7346157913001408    1.9201003729097366    1.633064732530368  
H    2.2752669533873107    2.414681920150467    -1.1260601312641034 
H    3.1532187056804384    0.2974396940217465    1.6414570393578432 
C    3.0748610423749456    3.516664908259135     2.2133774766304812 

12
energy 0.0, nre 0.0, age 0
C    0.15053332917967222   1.8887561172084721   -1.0737234337626012 
H    3.2844481751129297    1.6240865770698578    2.3469611396091423 
C    0.9390290830785464    2.789588867401128     3.132039823139004  
H    1.7590698212299989    0.1324709486893365    1.6032456453269512 
H    1.5075388738974729    2.833558660342649     2.3148732865924524 
C    0.46234652707820256   1.6793779810014966    0.40320388052517764
H    1.786161641213857     0.834956283315603     3.018327916799235  
C   -0.7662051367955138    2.9130401762356186    1.3947163281526542 
C    3.1532187056804384    0.2974396940217465    1.6414570393578432 
H    2.2752669533873107    2.414681920150467    -1.1260601312641034 
H    1.7346157913001408    1.9201003729097366    1.633064732530368  
C    3.0748610423749456    3.516664908259135     2.2133774766304812 

12
energy 0.0, nre 0.0, age 0
C   -1.602912865273451     2.23256078350576      1.1159957412231893 
C   -3.7135518884293033   -2.1053051791073942    2.0679800663802883 
C    0.008842219841966426   0.06964049635122027   0.8589114284757864 
H   -2.756883582297599     2.5134787553117723    3.6824262989168517 
H   -1.3769775490335165    1.6706650447934468    3.84504619634093   
H   -2.4603973971891486    2.677220824527085     2.4675710842557397 
C   -1.0026447179060805    0.7459199802028529   -0.26731137338734   
C   -2.3266756685245022    0.24325310794119304  -0.6418672753099761 
C   -3.284304994625888    -1.5082047408248345    2.228118124924621  
H   -0.1051453117686485    1.2408765306938845    2.597922447024242  
H   -1.014797143250191     0.08151995621082087   3.436912050359342  
H   -3.1732181190566955    0.953746792645334     0.27664460036501026

12
energy 0.0, nre 0.0, age 0
C   -1.602912865273451     2.23256078350576      1.1159957412231893 
C   -3.7135518884293033   -2.1053051791073942    2.0679800663802883 
C    0.008842219841966426   0.06964049635122027   0.8589114284757864 
H   -3.284304994625888    -1.5082047408248345    2.228118124924621  
H   -1.3769775490335165    1.6706650447934468    3.84504619634093   
H   -2.4603973971891486    2.677220824527085     2.4675710842557397 
C   -1.0026447179060805    0.7459199802028529   -0.26731137338734   
C   -2.3266756685245022    0.24325310794119304  -0.6418672753099761 
C   -2.756883582297599     2.5134787553117723    3.6824262989168517 
H   -0.1051453117686485    1.2408765306938845    2.597922447024242  
H   -1.014797143250191     0.08151995621082087   3.436912050359342  
H   -3.1732181190566955    0.953746792645334     0.27664460036501026

